testcases/PEGASE-13659_flat_start.m
% Case saved by PowerWorld Simulator, version 21, build date July 16, 2020
function mpc = PEGASE_13659_flat_start
mpc.version = '2';
mpc.baseMVA =  100.00;

%% bus data 
mpc.bus = [
1	3	0.00	0.00	0.00	0.00	0	1.0316950	0.000000	20.00	6	1.100	0.900
2	1	72.68	45.00	0.00	6.61	0	1.0000000	0.000000	150.00	9	1.100	0.900
3	1	378.40	98.50	0.00	16.61	0	1.0000000	0.000000	220.00	6	1.100	0.900
4	1	134.00	19.10	0.00	0.08	0	1.0000000	0.000000	154.00	1	1.100	0.900
5	1	151.00	48.80	0.00	4.69	0	1.0000000	0.000000	220.00	5	1.100	0.900
6	1	171.41	23.40	0.00	2.10	0	1.0000000	0.000000	220.00	5	1.100	0.900
7	1	45.95	14.00	0.00	13.34	0	1.0000000	0.000000	220.00	6	1.100	0.900
8	1	343.40	53.10	0.71	36.83	0	1.0000000	0.000000	380.00	6	1.100	0.900
9	1	0.00	0.00	0.00	75.08	0	1.0000000	0.000000	380.00	5	1.100	0.900
10	1	31.03	10.30	0.00	0.65	0	1.0000000	0.000000	110.00	21	1.100	0.900
11	1	0.00	0.00	0.00	3.41	0	1.0000000	0.000000	154.00	1	1.100	0.900
12	2	0.00	0.00	0.00	0.00	0	1.0000000	0.000000	20.00	3	1.100	0.900
13	1	14.30	2.00	0.00	1.91	0	1.0000000	0.000000	154.00	1	1.100	0.900
14	1	134.00	24.70	0.00	12.44	0	1.0000000	0.000000	220.00	5	1.100	0.900
15	1	0.00	0.00	0.00	0.00	0	1.0000000	0.000000	150.00	9	1.100	0.900
16	1	-6.11	2.00	0.00	0.47	0	1.0000000	0.000000	150.00	9	1.100	0.900
17	1	-22.74	-8.32	0.00	6.50	0	1.0000000	0.000000	220.00	6	1.100	0.900
18	2	0.00	0.00	0.00	0.00	0	1.0000000	0.000000	20.00	14	1.100	0.900
19	1	59.67	26.70	0.00	12.84	0	1.0000000	0.000000	220.00	4	1.100	0.900
20	1	30.60	4.30	0.00	5.15	0	1.0000000	0.000000	154.00	1	1.100	0.900
21	1	0.00	0.00	0.23	-0.20	0	1.0000000	0.000000	380.00	6	1.100	0.900
22	1	67.67	12.10	0.00	2.18	0	1.0000000	0.000000	220.00	3	1.100	0.900
23	1	0.00	0.00	0.30	20.60	0	1.0000000	0.000000	380.00	3	1.100	0.900
24	1	25.33	7.50	0.00	2.39	0	1.0000000	0.000000	110.00	12	1.100	0.900
25	1	1.40	0.20	0.00	4.93	0	1.0000000	0.000000	154.00	1	1.100	0.900
26	1	161.20	39.30	0.00	30.71	0	1.0000000	0.000000	220.00	5	1.100	0.900
27	1	0.00	0.00	0.00	0.85	0	1.0000000	0.000000	220.00	5	1.100	0.900
28	1	19.62	7.10	0.00	1.15	0	1.0000000	0.000000	110.00	19	1.100	0.900
29	2	0.00	0.00	0.00	0.00	0	1.0000000	0.000000	20.00	18	1.100	0.900
30	1	31.94	8.80	0.00	0.73	0	1.0000000	0.000000	110.00	22	1.100	0.900
31	1	0.00	0.00	0.24	0.31	0	1.0000000	0.000000	220.00	3	1.100	0.900
32	1	167.30	54.80	0.00	110.54	0	1.0000000	0.000000	380.00	5	1.100	0.900
33	2	0.00	0.00	0.00	0.00	0	1.0000000	0.000000	20.00	4	1.100	0.900
34	1	0.00	0.00	0.00	14.82	0	1.0000000	0.000000	380.00	13	1.100	0.900
35	1	0.00	0.00	0.00	0.00	0	1.0000000	0.000000	150.00	9	1.100	0.900
36	1	152.90	49.40	0.00	27.65	0	1.0000000	0.000000	380.00	5	1.100	0.900
37	1	0.00	0.00	0.00	0.56	0	1.0000000	0.000000	150.00	9	1.100	0.900
38	1	69.68	43.20	0.00	6.30	0	1.0000000	0.000000	150.00	9	1.100	0.900
39	2	0.00	0.00	0.00	0.00	0	1.0000000	0.000000	20.00	9	1.100	0.900
40	1	0.00	0.00	0.00	37.54	0	1.0000000	0.000000	220.00	4	1.100	0.900
41	1	0.00	0.00	0.00	0.25	0	1.0000000	0.000000	220.00	4	1.100	0.900
42	2	0.00	0.00	0.00	0.00	0	1.0000000	0.000000	11.00	1	1.100	0.900
43	1	13.51	4.90	0.00	1.80	0	1.0000000	0.000000	110.00	19	1.100	0.900
44	1	10.51	3.50	0.00	0.31	0	1.0000000	0.000000	110.00	12	1.100	0.900
45	2	0.00	0.00	0.00	0.00	0	1.0000000	0.000000	20.00	4	1.100	0.900
46	1	0.00	0.00	0.12	15.34	0	1.0000000	0.000000	220.00	19	1.100	0.900
47	1	9.21	2.60	0.00	2.00	0	1.0000000	0.000000	110.00	18	1.100	0.900
48	1	42.75	12.80	0.00	13.30	0	1.0000000	0.000000	220.00	8	1.100	0.900
49	1	0.00	0.00	0.02	0.32	0	1.0000000	0.000000	150.00	10	1.100	0.900
50	1	16.02	4.54	0.00	0.10	0	1.0000000	0.000000	110.00	23	1.100	0.900
51	2	0.00	0.00	0.00	0.00	0	1.0000000	0.000000	14.40	1	1.100	0.900
52	1	27.90	4.00	0.00	4.23	0	1.0000000	0.000000	154.00	1	1.100	0.900
53	1	20.82	7.90	0.00	26.89	0	1.0000000	0.000000	380.00	4	1.100	0.900
54	2	0.00	0.00	0.00	0.00	0	1.0000000	0.000000	20.00	14	1.100	0.900
55	1	0.00	0.00	0.00	7.27	0	1.0000000	0.000000	220.00	5	1.100	0.900
56	1	10.11	3.70	0.00	0.81	0	1.0000000	0.000000	110.00	19	1.100	0.900
57	1	10.01	2.70	0.00	1.14	0	1.0000000	0.000000	110.00	18	1.100	0.900
58	1	6.31	0.00	0.00	0.67	0	1.0000000	0.000000	110.00	18	1.100	0.900
59	1	2.90	0.90	0.00	0.60	0	1.0000000	0.000000	110.00	15	1.100	0.900
60	1	0.00	0.00	0.32	17.76	0	1.0000000	0.000000	220.00	6	1.100	0.900
61	1	0.00	0.00	0.55	0.43	0	1.0000000	0.000000	380.00	2	1.100	0.900
62	2	0.00	0.00	0.00	0.00	0	1.0000000	0.000000	20.00	5	1.100	0.900
63	2	0.00	0.00	0.00	0.00	0	1.0000000	0.000000	20.00	5	1.100	0.900
64	1	151.80	48.30	0.00	5.53	0	1.0000000	0.000000	220.00	4	1.100	0.900
65	1	127.60	31.80	0.00	20.51	0	1.0000000	0.000000	150.00	8	1.100	0.900
66	2	0.00	0.00	0.00	0.00	0	1.0000000	0.000000	20.00	22	1.100	0.900
67	1	0.00	0.00	0.00	0.84	0	1.0000000	0.000000	110.00	21	1.100	0.900
68	2	0.00	0.00	0.00	0.00	0	1.0000000	0.000000	20.00	4	1.100	0.900
69	2	0.00	0.00	0.00	0.00	0	1.0000000	0.000000	20.00	4	1.100	0.900
70	1	110.50	-26.80	0.00	16.37	0	1.0000000	0.000000	220.00	6	1.100	0.900
71	1	0.00	0.00	0.00	0.00	0	1.0000000	0.000000	20.00	5	1.100	0.900
72	1	0.00	0.00	0.00	0.00	0	1.0000000	0.000000	20.00	5	1.100	0.900
73	1	0.00	0.00	0.00	1.23	0	1.0000000	0.000000	220.00	3	1.100	0.900
74	1	0.00	0.00	0.00	0.00	0	1.0000000	0.000000	20.00	5	1.100	0.900
75	1	0.00	0.00	0.00	0.00	0	1.0000000	0.000000	20.00	5	1.100	0.900
76	1	0.00	0.00	0.00	0.00	0	1.0000000	0.000000	20.00	5	1.100	0.900
77	2	0.00	0.00	0.00	0.00	0	1.0000000	0.000000	20.00	5	1.100	0.900
78	2	0.00	0.00	0.00	0.00	0	1.0000000	0.000000	20.00	5	1.100	0.900
79	2	0.00	0.00	0.00	0.00	0	1.0000000	0.000000	20.00	5	1.100	0.900
80	1	140.00	79.70	0.00	6.50	0	1.0000000	0.000000	220.00	3	1.100	0.900
81	1	21.60	3.00	0.00	3.54	0	1.0000000	0.000000	154.00	1	1.100	0.900
82	1	0.00	0.00	0.00	2.31	0	1.0000000	0.000000	380.00	5	1.100	0.900
83	1	119.20	20.70	0.00	3.31	0	1.0000000	0.000000	220.00	5	1.100	0.900
84	1	26.43	9.90	0.00	9.57	0	1.0000000	0.000000	110.00	22	1.100	0.900
85	1	0.24	-1.66	0.00	0.65	0	1.0000000	0.000000	110.00	18	1.100	0.900
86	2	0.00	0.00	0.00	0.00	0	1.0000000	0.000000	20.00	6	1.100	0.900
87	1	0.00	0.00	0.00	0.00	0	1.0000000	0.000000	20.00	6	1.100	0.900
88	1	0.00	0.00	0.00	0.00	0	1.0000000	0.000000	20.00	6	1.100	0.900
89	1	0.00	0.00	0.00	58.57	0	1.0000000	0.000000	380.00	3	1.100	0.900
90	1	0.00	0.00	0.00	1.34	0	1.0000000	0.000000	110.00	18	1.100	0.900
91	1	187.90	110.20	0.00	21.25	0	1.0000000	0.000000	380.00	3	1.100	0.900
92	1	14.92	5.50	0.00	1.31	0	1.0000000	0.000000	110.00	15	1.100	0.900
93	1	-18.52	6.10	0.00	0.79	0	1.0000000	0.000000	150.00	9	1.100	0.900
94	2	0.00	0.00	0.00	0.00	0	1.0000000	0.000000	11.00	1	1.100	0.900
95	1	4.61	1.70	0.00	2.32	0	1.0000000	0.000000	110.00	19	1.100	0.900
96	2	0.00	0.00	0.00	0.00	0	1.0000000	0.000000	20.00	4	1.100	0.900
97	2	0.00	0.00	0.00	0.00	0	1.0000000	0.000000	20.00	4	1.100	0.900
98	2	0.00	0.00	0.00	0.00	0	1.0000000	0.000000	20.00	4	1.100	0.900
99	2	0.00	0.00	0.00	0.00	0	1.0000000	0.000000	20.00	4	1.100	0.900
100	2	0.00	0.00	0.00	0.00	0	1.0000000	0.000000	20.00	4	1.100	0.900
101	2	0.00	0.00	0.00	0.00	0	1.0000000	0.000000	20.00	4	1.100	0.900
102	2	0.00	0.00	0.00	0.00	0	1.0000000	0.000000	20.00	4	1.100	0.900
103	1	62.87	20.50	0.00	1.15	0	1.0000000	0.000000	150.00	8	1.100	0.900
104	2	0.00	0.00	0.00	0.00	0	1.0000000	0.000000	20.00	3	1.100	0.900
105	1	13.50	14.80	0.00	132.44	0	1.0000000	0.000000	380.00	9	1.100	0.900
106	1	126.30	42.40	0.00	55.24	0	1.0000000	0.000000	150.00	8	1.100	0.900
107	2	0.00	0.00	0.00	0.00	0	1.0000000	0.000000	20.00	3	1.100	0.900
108	1	6.91	-4.60	0.00	5.75	0	1.0000000	0.000000	220.00	4	1.100	0.900
109	1	15.72	5.20	0.00	0.11	0	1.0000000	0.000000	110.00	12	1.100	0.900
110	2	0.00	0.00	0.00	0.00	0	1.0000000	0.000000	20.00	3	1.100	0.900
111	1	16.12	4.30	0.00	0.49	0	1.0000000	0.000000	110.00	23	1.100	0.900
112	1	38.74	6.10	0.00	1.17	0	1.0000000	0.000000	220.00	4	1.100	0.900
113	1	22.13	10.70	0.00	14.21	0	1.0000000	0.000000	220.00	8	1.100	0.900
114	2	0.00	0.00	0.00	0.00	0	1.0000000	0.000000	20.00	4	1.100	0.900
115	2	0.00	0.00	0.00	0.00	0	1.0000000	0.000000	20.00	10	1.100	0.900
116	1	0.00	0.00	0.00	0.73	0	1.0000000	0.000000	220.00	4	1.100	0.900
117	1	0.00	0.00	0.00	0.83	0	1.0000000	0.000000	110.00	18	1.100	0.900
118	1	138.80	136.70	0.00	8.76	0	1.0000000	0.000000	380.00	3	1.100	0.900
119	1	137.30	66.40	0.17	14.17	0	1.0000000	0.000000	220.00	23	1.100	0.900
120	1	67.76	19.18	0.00	1.47	0	1.0000000	0.000000	150.00	1	1.100	0.900
121	2	0.00	0.00	0.00	0.00	0	1.0000000	0.000000	20.00	14	1.100	0.900
122	1	0.00	0.00	0.00	6.62	0	1.0000000	0.000000	220.00	3	1.100	0.900
123	1	0.00	0.00	0.00	7.22	0	1.0000000	0.000000	380.00	1	1.100	0.900
124	1	1.00	0.30	0.00	0.19	0	1.0000000	0.000000	110.00	19	1.100	0.900
125	1	20.90	3.00	0.00	5.74	0	1.0000000	0.000000	154.00	1	1.100	0.900
126	1	0.00	0.00	0.00	0.12	0	1.0000000	0.000000	150.00	9	1.100	0.900
127	1	21.52	5.10	0.00	0.50	0	1.0000000	0.000000	110.00	18	1.100	0.900
128	1	71.98	28.80	0.00	11.00	0	1.0000000	0.000000	220.00	6	1.100	0.900
129	1	0.00	0.00	0.21	4.47	0	1.0000000	0.000000	380.00	2	1.100	0.900
130	1	363.25	115.39	0.00	3.95	0	1.0000000	0.000000	220.00	5	1.100	0.900
131	1	192.90	73.30	0.00	20.75	0	1.0000000	0.000000	380.00	3	1.100	0.900
132	2	0.00	0.00	0.00	0.00	0	1.0000000	0.000000	11.00	1	1.100	0.900
133	2	0.00	0.00	0.00	0.00	0	1.0000000	0.000000	20.00	14	1.100	0.900
134	2	0.00	0.00	0.00	0.00	0	1.0000000	0.000000	20.00	4	1.100	0.900
135	2	0.00	0.00	0.00	0.00	0	1.0000000	0.000000	20.00	4	1.100	0.900
136	2	0.00	0.00	0.00	0.00	0	1.0000000	0.000000	20.00	3	1.100	0.900
137	1	17.52	6.30	0.00	0.26	0	1.0000000	0.000000	110.00	19	1.100	0.900
138	1	33.14	12.00	0.00	0.65	0	1.0000000	0.000000	110.00	19	1.100	0.900
139	1	40.44	25.00	0.00	9.82	0	1.0000000	0.000000	150.00	9	1.100	0.900
140	1	193.17	53.37	0.00	4.58	0	1.0000000	0.000000	220.00	5	1.100	0.900
141	1	90.70	25.50	0.00	3.11	0	1.0000000	0.000000	220.00	3	1.100	0.900
142	1	176.30	-58.90	0.00	24.77	0	1.0000000	0.000000	380.00	6	1.100	0.900
143	1	35.94	22.30	0.00	0.00	0	1.0000000	0.000000	150.00	9	1.100	0.900
144	2	0.00	0.00	0.00	0.00	0	1.0000000	0.000000	20.00	14	1.100	0.900
145	2	0.00	0.00	0.00	0.00	0	1.0000000	0.000000	20.00	5	1.100	0.900
146	2	0.00	0.00	0.00	0.00	0	1.0000000	0.000000	20.00	5	1.100	0.900
147	2	0.00	0.00	0.00	0.00	0	1.0000000	0.000000	20.00	5	1.100	0.900
148	1	143.90	123.20	0.00	72.64	0	1.0000000	0.000000	380.00	3	1.100	0.900
149	1	0.00	0.00	0.00	3.77	0	1.0000000	0.000000	220.00	6	1.100	0.900
150	1	0.00	8.40	0.00	15.72	0	1.0000000	0.000000	150.00	9	1.100	0.900
151	2	0.00	0.00	0.00	0.00	0	1.0000000	0.000000	13.80	1	1.100	0.900
152	1	51.36	-8.80	0.00	2.15	0	1.0000000	0.000000	220.00	6	1.100	0.900
153	2	0.00	0.00	0.00	0.00	0	1.0000000	0.000000	20.00	14	1.100	0.900
154	2	0.00	0.00	0.00	0.00	0	1.0000000	0.000000	20.00	3	1.100	0.900
155	1	0.00	0.00	0.00	82.55	0	1.0000000	0.000000	380.00	6	1.100	0.900
156	2	0.00	0.00	0.00	0.00	0	1.0000000	0.000000	20.00	6	1.100	0.900
157	1	322.70	11.90	0.00	10.28	0	1.0000000	0.000000	380.00	6	1.100	0.900
158	1	303.60	79.80	0.02	1.69	0	1.0000000	0.000000	220.00	5	1.100	0.900
159	1	3.80	1.30	0.00	0.40	0	1.0000000	0.000000	110.00	18	1.100	0.900
160	1	137.00	19.50	0.00	4.90	0	1.0000000	0.000000	154.00	1	1.100	0.900
161	2	0.00	0.00	0.00	0.00	0	1.0000000	0.000000	20.00	6	1.100	0.900
162	2	0.00	0.00	0.00	0.00	0	1.0000000	0.000000	20.00	6	1.100	0.900
163	1	0.00	0.00	0.00	0.00	0	1.0000000	0.000000	150.00	9	1.100	0.900
164	1	61.07	36.00	0.00	3.09	0	1.0000000	0.000000	220.00	11	1.100	0.900
165	2	0.00	0.00	0.00	0.00	0	1.0000000	0.000000	20.00	4	1.100	0.900
166	1	0.00	0.00	0.00	3.24	0	1.0000000	0.000000	220.00	3	1.100	0.900
167	1	0.00	0.00	0.00	6.52	0	1.0000000	0.000000	380.00	5	1.100	0.900
168	1	55.70	7.90	0.00	4.21	0	1.0000000	0.000000	154.00	1	1.100	0.900
169	1	0.00	0.00	0.00	4.21	0	1.0000000	0.000000	220.00	5	1.100	0.900
170	1	1.80	0.70	0.00	0.30	0	1.0000000	0.000000	110.00	19	1.100	0.900
171	1	0.00	0.00	0.00	0.71	0	1.0000000	0.000000	150.00	9	1.100	0.900
172	1	2.50	0.00	0.00	0.96	0	1.0000000	0.000000	110.00	18	1.100	0.900
173	1	0.00	0.00	0.00	0.09	0	1.0000000	0.000000	150.00	9	1.100	0.900
174	1	38.94	11.00	0.00	0.64	0	1.0000000	0.000000	110.00	1	1.100	0.900
175	1	45.15	14.10	0.00	0.19	0	1.0000000	0.000000	110.00	15	1.100	0.900
176	1	0.00	0.00	0.00	5.75	0	1.0000000	0.000000	220.00	3	1.100	0.900
177	1	0.00	0.00	0.02	4.36	0	1.0000000	0.000000	220.00	11	1.100	0.900
178	1	0.00	0.00	0.57	-0.24	0	1.0000000	0.000000	220.00	5	1.100	0.900
179	2	0.00	0.00	0.00	0.00	0	1.0000000	0.000000	20.00	4	1.100	0.900
180	1	17.22	5.70	0.00	1.22	0	1.0000000	0.000000	110.00	21	1.100	0.900
181	1	0.00	0.00	0.00	0.00	0	1.0000000	0.000000	20.00	14	1.100	0.900
182	2	0.00	0.00	0.00	0.00	0	1.0000000	0.000000	20.00	20	1.100	0.900
183	1	0.00	0.00	0.00	4.30	0	1.0000000	0.000000	220.00	6	1.100	0.900
184	1	23.73	12.70	0.00	0.52	0	1.0000000	0.000000	220.00	5	1.100	0.900
185	1	121.90	7.40	0.00	1.34	0	1.0000000	0.000000	220.00	3	1.100	0.900
186	1	0.00	0.00	0.14	47.75	0	1.0000000	0.000000	380.00	10	1.100	0.900
187	1	47.35	16.40	0.00	4.08	0	1.0000000	0.000000	110.00	22	1.100	0.900
188	1	0.00	0.00	0.00	0.00	0	1.0000000	0.000000	20.00	4	1.100	0.900
189	1	0.00	0.00	0.00	21.39	0	1.0000000	0.000000	380.00	1	1.100	0.900
190	1	38.14	12.50	0.00	6.28	0	1.0000000	0.000000	150.00	8	1.100	0.900
191	1	54.20	7.80	0.00	94.90	0	1.0000000	0.000000	400.00	1	1.100	0.900
192	1	130.60	84.90	0.00	4.22	0	1.0000000	0.000000	220.00	7	1.100	0.900
193	1	7.91	2.60	0.00	0.74	0	1.0000000	0.000000	110.00	12	1.100	0.900
194	1	42.10	74.61	0.00	37.58	0	1.0000000	0.000000	150.00	1	1.100	0.900
195	1	-75.38	7.80	0.00	29.90	0	1.0000000	0.000000	380.00	10	1.100	0.900
196	2	0.00	0.00	0.00	0.00	0	1.0000000	0.000000	20.00	6	1.100	0.900
197	2	0.00	0.00	0.00	0.00	0	1.0000000	0.000000	20.00	4	1.100	0.900
198	1	41.05	14.30	0.00	11.53	0	1.0000000	0.000000	220.00	6	1.100	0.900
199	1	0.00	0.00	0.00	4.14	0	1.0000000	0.000000	220.00	8	1.100	0.900
200	1	100.90	49.30	0.02	4.33	0	1.0000000	0.000000	220.00	13	1.100	0.900
...
];

%% generator data 
mpc.gen = [
1	42.33	0.00	40.00	-10.00	1.0317	100.00	1	100.00	28.22	0.00	0.00	0.00	0.00	0.00	0.00	0	0	0	0	100.0000
12	238.58	128.51	210.00	-50.00	1.0041	100.00	1	500.00	100.00	0.00	0.00	0.00	0.00	0.00	0.00	0	0	0	0	500.0000
18	38.02	28.81	30.00	-10.00	1.0431	100.00	1	100.00	25.35	0.00	0.00	0.00	0.00	0.00	0.00	0	0	0	0	100.0000
29	34.78	21.17	30.00	-10.00	1.0333	100.00	1	100.00	23.19	0.00	0.00	0.00	0.00	0.00	0.00	0	0	0	0	100.0000
33	25.35	16.58	40.00	-10.00	1.0186	100.00	1	100.00	16.90	0.00	0.00	0.00	0.00	0.00	0.00	0	0	0	0	100.0000
39	214.60	496.43	210.00	-50.00	1.0733	100.00	1	500.00	100.00	0.00	0.00	0.00	0.00	0.00	0.00	0	0	0	0	500.0000
42	16.10	-3.16	20.00	-20.00	0.9852	100.00	1	100.00	10.73	0.00	0.00	0.00	0.00	0.00	0.00	0	0	0	0	100.0000
45	192.55	73.42	160.00	-40.00	1.0121	100.00	1	400.00	100.00	0.00	0.00	0.00	0.00	0.00	0.00	0	0	0	0	400.0000
51	161.00	-60.08	90.00	-90.00	1.0114	100.00	1	400.00	100.00	0.00	0.00	0.00	0.00	0.00	0.00	0	0	0	0	400.0000
54	37.08	18.10	30.00	-10.00	1.0210	100.00	1	100.00	24.72	0.00	0.00	0.00	0.00	0.00	0.00	0	0	0	0	100.0000
62	617.70	876.58	520.00	-120.00	1.0583	100.00	1	1300.00	400.00	0.00	0.00	0.00	0.00	0.00	0.00	0	0	0	0	1300.0000
63	617.70	876.58	520.00	-120.00	1.0583	100.00	1	1300.00	400.00	0.00	0.00	0.00	0.00	0.00	0.00	0	0	0	0	1300.0000
66	179.12	185.48	160.00	-40.00	1.0348	100.00	1	400.00	100.00	0.00	0.00	0.00	0.00	0.00	0.00	0	0	0	0	400.0000
68	53.72	32.05	40.00	-10.00	1.0350	100.00	1	200.00	35.81	0.00	0.00	0.00	0.00	0.00	0.00	0	0	0	0	200.0000
69	53.72	32.05	40.00	-10.00	1.0350	100.00	1	200.00	35.81	0.00	0.00	0.00	0.00	0.00	0.00	0	0	0	0	200.0000
77	24.65	25.19	30.00	-10.00	1.0383	100.00	1	100.00	16.43	0.00	0.00	0.00	0.00	0.00	0.00	0	0	0	0	100.0000
78	54.48	21.73	30.00	-10.00	1.0274	100.00	1	200.00	36.32	0.00	0.00	0.00	0.00	0.00	0.00	0	0	0	0	200.0000
79	18.13	11.94	30.00	-10.00	1.0167	100.00	1	100.00	12.09	0.00	0.00	0.00	0.00	0.00	0.00	0	0	0	0	100.0000
86	152.70	55.63	80.00	-20.00	1.0239	100.00	1	400.00	100.00	0.00	0.00	0.00	0.00	0.00	0.00	0	0	0	0	400.0000
94	17.64	8.23	20.00	-10.00	1.0226	100.00	1	100.00	11.76	0.00	0.00	0.00	0.00	0.00	0.00	0	0	0	0	100.0000
96	49.42	50.33	40.00	-10.00	1.0432	100.00	1	100.00	32.95	0.00	0.00	0.00	0.00	0.00	0.00	0	0	0	0	100.0000
97	49.42	50.33	40.00	-10.00	1.0432	100.00	1	100.00	32.95	0.00	0.00	0.00	0.00	0.00	0.00	0	0	0	0	100.0000
98	49.42	50.33	40.00	-10.00	1.0432	100.00	1	100.00	32.95	0.00	0.00	0.00	0.00	0.00	0.00	0	0	0	0	100.0000
99	23.85	33.60	40.00	-10.00	1.0319	100.00	1	100.00	15.90	0.00	0.00	0.00	0.00	0.00	0.00	0	0	0	0	100.0000
100	23.85	33.60	40.00	-10.00	1.0319	100.00	1	100.00	15.90	0.00	0.00	0.00	0.00	0.00	0.00	0	0	0	0	100.0000
101	49.42	50.33	40.00	-10.00	1.0432	100.00	1	100.00	32.95	0.00	0.00	0.00	0.00	0.00	0.00	0	0	0	0	100.0000
102	49.42	50.33	40.00	-10.00	1.0432	100.00	1	100.00	32.95	0.00	0.00	0.00	0.00	0.00	0.00	0	0	0	0	100.0000
104	87.95	70.82	60.00	-20.00	1.0523	100.00	1	200.00	58.63	0.00	0.00	0.00	0.00	0.00	0.00	0	0	0	0	200.0000
107	68.26	56.75	60.00	-20.00	1.0282	100.00	1	200.00	45.51	0.00	0.00	0.00	0.00	0.00	0.00	0	0	0	0	200.0000
110	91.47	102.98	60.00	-20.00	1.0512	100.00	1	200.00	60.98	0.00	0.00	0.00	0.00	0.00	0.00	0	0	0	0	200.0000
114	42.35	32.91	40.00	-10.00	1.0308	100.00	1	100.00	28.23	0.00	0.00	0.00	0.00	0.00	0.00	0	0	0	0	100.0000
115	22.35	14.37	30.00	-10.00	1.0190	100.00	1	100.00	14.90	0.00	0.00	0.00	0.00	0.00	0.00	0	0	0	0	100.0000
121	36.03	28.36	30.00	-10.00	1.0454	100.00	1	100.00	24.02	0.00	0.00	0.00	0.00	0.00	0.00	0	0	0	0	100.0000
132	6.52	0.10	10.00	-10.00	0.9961	100.00	1	100.00	4.35	0.00	0.00	0.00	0.00	0.00	0.00	0	0	0	0	100.0000
133	36.77	26.00	30.00	-10.00	1.0423	100.00	1	100.00	24.51	0.00	0.00	0.00	0.00	0.00	0.00	0	0	0	0	100.0000
134	45.54	51.52	40.00	-10.00	1.0441	100.00	1	100.00	30.36	0.00	0.00	0.00	0.00	0.00	0.00	0	0	0	0	100.0000
135	42.35	32.91	40.00	-10.00	1.0308	100.00	1	100.00	28.23	0.00	0.00	0.00	0.00	0.00	0.00	0	0	0	0	100.0000
136	50.83	103.40	60.00	-20.00	1.0497	100.00	1	200.00	33.89	0.00	0.00	0.00	0.00	0.00	0.00	0	0	0	0	200.0000
144	17.80	21.94	30.00	-10.00	1.0346	100.00	1	100.00	11.87	0.00	0.00	0.00	0.00	0.00	0.00	0	0	0	0	100.0000
145	612.01	1192.98	520.00	-120.00	1.0406	100.00	1	1300.00	400.00	0.00	0.00	0.00	0.00	0.00	0.00	0	0	0	0	1300.0000
146	612.04	1241.58	520.00	-120.00	1.0443	100.00	1	1300.00	400.00	0.00	0.00	0.00	0.00	0.00	0.00	0	0	0	0	1300.0000
147	612.04	1241.58	520.00	-120.00	1.0443	100.00	1	1300.00	400.00	0.00	0.00	0.00	0.00	0.00	0.00	0	0	0	0	1300.0000
151	204.00	105.34	150.00	-60.00	1.0232	100.00	1	500.00	100.00	0.00	0.00	0.00	0.00	0.00	0.00	0	0	0	0	500.0000
153	36.13	23.67	30.00	-10.00	1.0273	100.00	1	100.00	24.09	0.00	0.00	0.00	0.00	0.00	0.00	0	0	0	0	100.0000
154	766.83	1084.39	520.00	-120.00	1.0525	100.00	1	1600.00	500.00	0.00	0.00	0.00	0.00	0.00	0.00	0	0	0	0	1600.0000
156	49.34	28.41	40.00	-10.00	1.0346	100.00	1	100.00	32.89	0.00	0.00	0.00	0.00	0.00	0.00	0	0	0	0	100.0000
161	49.34	28.41	40.00	-10.00	1.0346	100.00	1	100.00	32.89	0.00	0.00	0.00	0.00	0.00	0.00	0	0	0	0	100.0000
162	49.34	28.41	40.00	-10.00	1.0346	100.00	1	100.00	32.89	0.00	0.00	0.00	0.00	0.00	0.00	0	0	0	0	100.0000
165	42.35	32.91	40.00	-10.00	1.0308	100.00	1	100.00	28.23	0.00	0.00	0.00	0.00	0.00	0.00	0	0	0	0	100.0000
179	95.02	44.10	60.00	-20.00	1.0231	100.00	1	200.00	63.35	0.00	0.00	0.00	0.00	0.00	0.00	0	0	0	0	200.0000
182	34.96	30.32	30.00	-10.00	1.0549	100.00	1	100.00	23.31	0.00	0.00	0.00	0.00	0.00	0.00	0	0	0	0	100.0000
196	81.07	35.05	60.00	-20.00	1.0219	100.00	1	200.00	54.05	0.00	0.00	0.00	0.00	0.00	0.00	0	0	0	0	200.0000
197	245.73	63.30	160.00	-40.00	1.0053	100.00	1	500.00	100.00	0.00	0.00	0.00	0.00	0.00	0.00	0	0	0	0	500.0000
207	27.95	11.87	30.00	-10.00	1.0165	100.00	1	100.00	18.63	0.00	0.00	0.00	0.00	0.00	0.00	0	0	0	0	100.0000
220	97.72	91.52	60.00	-20.00	1.0557	100.00	1	200.00	65.15	0.00	0.00	0.00	0.00	0.00	0.00	0	0	0	0	200.0000
221	97.72	91.52	60.00	-20.00	1.0557	100.00	1	200.00	65.15	0.00	0.00	0.00	0.00	0.00	0.00	0	0	0	0	200.0000
222	97.66	75.93	60.00	-20.00	1.0511	100.00	1	200.00	65.11	0.00	0.00	0.00	0.00	0.00	0.00	0	0	0	0	200.0000
223	97.72	91.52	60.00	-20.00	1.0557	100.00	1	200.00	65.15	0.00	0.00	0.00	0.00	0.00	0.00	0	0	0	0	200.0000
224	97.66	75.93	60.00	-20.00	1.0511	100.00	1	200.00	65.11	0.00	0.00	0.00	0.00	0.00	0.00	0	0	0	0	200.0000
225	97.66	75.93	60.00	-20.00	1.0511	100.00	1	200.00	65.11	0.00	0.00	0.00	0.00	0.00	0.00	0	0	0	0	200.0000
229	21.03	23.58	30.00	-10.00	1.0344	100.00	1	100.00	14.02	0.00	0.00	0.00	0.00	0.00	0.00	0	0	0	0	100.0000
241	601.87	702.90	520.00	-120.00	1.0376	100.00	1	1300.00	400.00	0.00	0.00	0.00	0.00	0.00	0.00	0	0	0	0	1300.0000
243	32.43	31.86	30.00	-10.00	1.0536	100.00	1	100.00	21.62	0.00	0.00	0.00	0.00	0.00	0.00	0	0	0	0	100.0000
248	26.38	19.66	30.00	-10.00	1.0263	100.00	1	100.00	17.59	0.00	0.00	0.00	0.00	0.00	0.00	0	0	0	0	100.0000
250	192.55	73.42	160.00	-40.00	1.0121	100.00	1	400.00	100.00	0.00	0.00	0.00	0.00	0.00	0.00	0	0	0	0	400.0000
258	8.20	-4.47	10.00	-10.00	0.9554	100.00	1	100.00	5.47	0.00	0.00	0.00	0.00	0.00	0.00	0	0	0	0	100.0000
259	38.51	23.25	30.00	-10.00	1.0343	100.00	1	100.00	25.67	0.00	0.00	0.00	0.00	0.00	0.00	0	0	0	0	100.0000
266	28.48	7.23	30.00	-10.00	1.0059	100.00	1	100.00	18.99	0.00	0.00	0.00	0.00	0.00	0.00	0	0	0	0	100.0000
270	18.40	1.19	20.00	-20.00	1.0033	100.00	1	100.00	12.27	0.00	0.00	0.00	0.00	0.00	0.00	0	0	0	0	100.0000
271	626.63	877.10	520.00	-120.00	1.0532	100.00	1	1300.00	400.00	0.00	0.00	0.00	0.00	0.00	0.00	0	0	0	0	1300.0000
273	626.63	849.80	520.00	-120.00	1.0515	100.00	1	1300.00	400.00	0.00	0.00	0.00	0.00	0.00	0.00	0	0	0	0	1300.0000
274	626.64	845.10	520.00	-120.00	1.0511	100.00	1	1300.00	400.00	0.00	0.00	0.00	0.00	0.00	0.00	0	0	0	0	1300.0000
275	626.64	845.10	520.00	-120.00	1.0511	100.00	1	1300.00	400.00	0.00	0.00	0.00	0.00	0.00	0.00	0	0	0	0	1300.0000
276	626.64	838.26	520.00	-120.00	1.0504	100.00	1	1300.00	400.00	0.00	0.00	0.00	0.00	0.00	0.00	0	0	0	0	1300.0000
278	627.00	-173.09	320.00	-190.00	0.9608	100.00	1	1300.00	400.00	0.00	0.00	0.00	0.00	0.00	0.00	0	0	0	0	1300.0000
283	8.00	0.27	10.00	-10.00	1.0006	100.00	1	100.00	5.33	0.00	0.00	0.00	0.00	0.00	0.00	0	0	0	0	100.0000
289	36.90	25.30	30.00	-10.00	1.0403	100.00	1	100.00	24.60	0.00	0.00	0.00	0.00	0.00	0.00	0	0	0	0	100.0000
294	92.80	-21.32	50.00	-50.00	0.9992	100.00	1	200.00	61.87	0.00	0.00	0.00	0.00	0.00	0.00	0	0	0	0	200.0000
296	21.00	7.85	10.00	-10.00	0.9891	100.00	1	100.00	14.00	0.00	0.00	0.00	0.00	0.00	0.00	0	0	0	0	100.0000
299	158.90	-42.68	100.00	-30.00	0.9935	100.00	1	400.00	100.00	0.00	0.00	0.00	0.00	0.00	0.00	0	0	0	0	400.0000
304	39.98	22.51	30.00	-10.00	1.0380	100.00	1	100.00	26.65	0.00	0.00	0.00	0.00	0.00	0.00	0	0	0	0	100.0000
305	27.73	22.82	30.00	-10.00	1.0304	100.00	1	100.00	18.49	0.00	0.00	0.00	0.00	0.00	0.00	0	0	0	0	100.0000
306	27.73	22.82	30.00	-10.00	1.0304	100.00	1	100.00	18.49	0.00	0.00	0.00	0.00	0.00	0.00	0	0	0	0	100.0000
307	17.66	26.21	30.00	-10.00	1.0493	100.00	1	100.00	11.77	0.00	0.00	0.00	0.00	0.00	0.00	0	0	0	0	100.0000
308	17.66	26.21	30.00	-10.00	1.0493	100.00	1	100.00	11.77	0.00	0.00	0.00	0.00	0.00	0.00	0	0	0	0	100.0000
309	32.08	36.70	30.00	-10.00	1.0566	100.00	1	100.00	21.39	0.00	0.00	0.00	0.00	0.00	0.00	0	0	0	0	100.0000
310	32.08	36.70	30.00	-10.00	1.0566	100.00	1	100.00	21.39	0.00	0.00	0.00	0.00	0.00	0.00	0	0	0	0	100.0000
311	32.08	36.70	30.00	-10.00	1.0566	100.00	1	100.00	21.39	0.00	0.00	0.00	0.00	0.00	0.00	0	0	0	0	100.0000
312	32.08	36.70	30.00	-10.00	1.0566	100.00	1	100.00	21.39	0.00	0.00	0.00	0.00	0.00	0.00	0	0	0	0	100.0000
315	2.06	0.34	10.00	-10.00	1.0212	100.00	1	100.00	1.37	0.00	0.00	0.00	0.00	0.00	0.00	0	0	0	0	100.0000
323	419.13	145.66	520.00	-120.00	1.0170	100.00	1	900.00	200.00	0.00	0.00	0.00	0.00	0.00	0.00	0	0	0	0	900.0000
324	5.00	2.64	10.00	-10.00	1.0242	100.00	1	100.00	3.33	0.00	0.00	0.00	0.00	0.00	0.00	0	0	0	0	100.0000
325	4.80	0.10	10.00	-10.00	0.9964	100.00	1	100.00	3.20	0.00	0.00	0.00	0.00	0.00	0.00	0	0	0	0	100.0000
328	54.54	14.34	40.00	-10.00	1.0232	100.00	1	200.00	36.36	0.00	0.00	0.00	0.00	0.00	0.00	0	0	0	0	200.0000
331	27.62	5.16	30.00	-20.00	1.0062	100.00	1	100.00	18.41	0.00	0.00	0.00	0.00	0.00	0.00	0	0	0	0	100.0000
332	2.00	-0.08	10.00	-10.00	0.9968	100.00	1	100.00	1.33	0.00	0.00	0.00	0.00	0.00	0.00	0	0	0	0	100.0000
336	16.08	3.70	10.00	-10.00	1.0109	100.00	1	100.00	10.72	0.00	0.00	0.00	0.00	0.00	0.00	0	0	0	0	100.0000
338	16.08	0.45	10.00	-10.00	1.0004	100.00	1	100.00	10.72	0.00	0.00	0.00	0.00	0.00	0.00	0	0	0	0	100.0000
345	333.10	140.11	210.00	-50.00	1.0304	100.00	1	700.00	200.00	0.00	0.00	0.00	0.00	0.00	0.00	0	0	0	0	700.0000
346	333.10	140.11	210.00	-50.00	1.0304	100.00	1	700.00	200.00	0.00	0.00	0.00	0.00	0.00	0.00	0	0	0	0	700.0000
351	167.59	174.70	210.00	-50.00	1.0245	100.00	1	400.00	100.00	0.00	0.00	0.00	0.00	0.00	0.00	0	0	0	0	400.0000
354	36.42	22.28	30.00	-10.00	1.0292	100.00	1	100.00	24.28	0.00	0.00	0.00	0.00	0.00	0.00	0	0	0	0	100.0000
358	165.24	352.05	210.00	-50.00	1.0507	100.00	1	400.00	100.00	0.00	0.00	0.00	0.00	0.00	0.00	0	0	0	0	400.0000
360	84.12	34.80	60.00	-20.00	1.0286	100.00	1	200.00	56.08	0.00	0.00	0.00	0.00	0.00	0.00	0	0	0	0	200.0000
361	84.12	34.80	60.00	-20.00	1.0286	100.00	1	200.00	56.08	0.00	0.00	0.00	0.00	0.00	0.00	0	0	0	0	200.0000
362	84.12	34.80	60.00	-20.00	1.0286	100.00	1	200.00	56.08	0.00	0.00	0.00	0.00	0.00	0.00	0	0	0	0	200.0000
363	84.12	34.80	60.00	-20.00	1.0286	100.00	1	200.00	56.08	0.00	0.00	0.00	0.00	0.00	0.00	0	0	0	0	200.0000
364	5.25	0.56	10.00	-10.00	1.0056	100.00	1	100.00	3.50	0.00	0.00	0.00	0.00	0.00	0.00	0	0	0	0	100.0000
365	95.20	61.04	110.00	-30.00	0.9976	100.00	1	200.00	63.47	0.00	0.00	0.00	0.00	0.00	0.00	0	0	0	0	200.0000
368	84.12	34.80	60.00	-20.00	1.0286	100.00	1	200.00	56.08	0.00	0.00	0.00	0.00	0.00	0.00	0	0	0	0	200.0000
369	84.12	34.80	60.00	-20.00	1.0286	100.00	1	200.00	56.08	0.00	0.00	0.00	0.00	0.00	0.00	0	0	0	0	200.0000
382	102.03	-3.43	60.00	-20.00	0.9906	100.00	1	300.00	68.02	0.00	0.00	0.00	0.00	0.00	0.00	0	0	0	0	300.0000
383	102.24	24.44	60.00	-20.00	1.0125	100.00	1	300.00	68.16	0.00	0.00	0.00	0.00	0.00	0.00	0	0	0	0	300.0000
392	1.03	1.25	10.00	-10.00	1.0306	100.00	1	100.00	0.69	0.00	0.00	0.00	0.00	0.00	0.00	0	0	0	0	100.0000
394	37.90	18.00	30.00	-10.00	1.0326	100.00	1	100.00	25.27	0.00	0.00	0.00	0.00	0.00	0.00	0	0	0	0	100.0000
395	37.23	24.54	30.00	-10.00	1.0283	100.00	1	100.00	24.82	0.00	0.00	0.00	0.00	0.00	0.00	0	0	0	0	100.0000
396	85.28	43.84	60.00	-20.00	1.0295	100.00	1	200.00	56.85	0.00	0.00	0.00	0.00	0.00	0.00	0	0	0	0	200.0000
400	94.50	21.97	50.00	-40.00	0.9790	100.00	1	200.00	63.00	0.00	0.00	0.00	0.00	0.00	0.00	0	0	0	0	200.0000
405	33.64	10.47	30.00	-10.00	1.0077	100.00	1	100.00	22.43	0.00	0.00	0.00	0.00	0.00	0.00	0	0	0	0	100.0000
406	33.64	10.47	30.00	-10.00	1.0077	100.00	1	100.00	22.43	0.00	0.00	0.00	0.00	0.00	0.00	0	0	0	0	100.0000
408	34.92	22.31	30.00	-10.00	1.0435	100.00	1	100.00	23.28	0.00	0.00	0.00	0.00	0.00	0.00	0	0	0	0	100.0000
423	0.99	-0.09	10.00	-10.00	1.0159	100.00	1	100.00	0.66	0.00	0.00	0.00	0.00	0.00	0.00	0	0	0	0	100.0000
432	4.50	0.57	10.00	-10.00	1.0166	100.00	1	100.00	3.00	0.00	0.00	0.00	0.00	0.00	0.00	0	0	0	0	100.0000
433	30.04	17.85	30.00	-10.00	1.0115	100.00	1	100.00	20.03	0.00	0.00	0.00	0.00	0.00	0.00	0	0	0	0	100.0000
438	18.13	11.94	30.00	-10.00	1.0167	100.00	1	100.00	12.09	0.00	0.00	0.00	0.00	0.00	0.00	0	0	0	0	100.0000
442	31.35	28.56	30.00	-10.00	1.0434	100.00	1	100.00	20.90	0.00	0.00	0.00	0.00	0.00	0.00	0	0	0	0	100.0000
448	25.22	16.27	20.00	-10.00	1.0388	100.00	1	100.00	16.81	0.00	0.00	0.00	0.00	0.00	0.00	0	0	0	0	100.0000
454	8.35	-2.65	10.00	-10.00	0.9738	100.00	1	100.00	5.57	0.00	0.00	0.00	0.00	0.00	0.00	0	0	0	0	100.0000
458	31.28	13.20	30.00	-10.00	1.0099	100.00	1	100.00	20.85	0.00	0.00	0.00	0.00	0.00	0.00	0	0	0	0	100.0000
463	-19.98	857.77	100000.00	-100000.00	1.1266	100.00	1	100.00	-26.64	0.00	0.00	0.00	0.00	0.00	0.00	0	0	0	0	100.0000
470	74.80	70.11	60.00	-20.00	1.0469	100.00	1	200.00	49.87	0.00	0.00	0.00	0.00	0.00	0.00	0	0	0	0	200.0000
476	214.05	98.32	210.00	-50.00	1.0295	100.00	1	500.00	100.00	0.00	0.00	0.00	0.00	0.00	0.00	0	0	0	0	500.0000
477	38.02	28.81	30.00	-10.00	1.0431	100.00	1	100.00	25.35	0.00	0.00	0.00	0.00	0.00	0.00	0	0	0	0	100.0000
480	89.20	33.41	60.00	-20.00	1.0334	100.00	1	200.00	59.47	0.00	0.00	0.00	0.00	0.00	0.00	0	0	0	0	200.0000
481	89.20	33.41	60.00	-20.00	1.0334	100.00	1	200.00	59.47	0.00	0.00	0.00	0.00	0.00	0.00	0	0	0	0	200.0000
482	89.20	33.41	60.00	-20.00	1.0334	100.00	1	200.00	59.47	0.00	0.00	0.00	0.00	0.00	0.00	0	0	0	0	200.0000
483	89.20	33.41	60.00	-20.00	1.0334	100.00	1	200.00	59.47	0.00	0.00	0.00	0.00	0.00	0.00	0	0	0	0	200.0000
485	325.03	515.50	210.00	-50.00	1.0596	100.00	1	700.00	200.00	0.00	0.00	0.00	0.00	0.00	0.00	0	0	0	0	700.0000
492	273.28	276.72	210.00	-50.00	1.0420	100.00	1	600.00	100.00	0.00	0.00	0.00	0.00	0.00	0.00	0	0	0	0	600.0000
496	64.28	10.86	60.00	-20.00	1.0088	100.00	1	200.00	42.85	0.00	0.00	0.00	0.00	0.00	0.00	0	0	0	0	200.0000
508	857.64	711.09	520.00	-120.00	1.0448	100.00	1	1800.00	500.00	0.00	0.00	0.00	0.00	0.00	0.00	0	0	0	0	1800.0000
509	857.69	695.93	520.00	-120.00	1.0444	100.00	1	1800.00	500.00	0.00	0.00	0.00	0.00	0.00	0.00	0	0	0	0	1800.0000
510	857.66	701.84	520.00	-120.00	1.0441	100.00	1	1800.00	500.00	0.00	0.00	0.00	0.00	0.00	0.00	0	0	0	0	1800.0000
514	857.64	707.98	520.00	-120.00	1.0445	100.00	1	1800.00	500.00	0.00	0.00	0.00	0.00	0.00	0.00	0	0	0	0	1800.0000
516	32.57	31.90	30.00	-10.00	1.0417	100.00	1	100.00	21.71	0.00	0.00	0.00	0.00	0.00	0.00	0	0	0	0	100.0000
528	23.66	17.77	30.00	-10.00	1.0207	100.00	1	100.00	15.77	0.00	0.00	0.00	0.00	0.00	0.00	0	0	0	0	100.0000
531	38.79	28.13	30.00	-10.00	1.0358	100.00	1	100.00	25.86	0.00	0.00	0.00	0.00	0.00	0.00	0	0	0	0	100.0000
532	258.95	281.54	210.00	-50.00	1.0367	100.00	1	600.00	100.00	0.00	0.00	0.00	0.00	0.00	0.00	0	0	0	0	600.0000
533	164.92	73.40	160.00	-40.00	1.0164	100.00	1	400.00	100.00	0.00	0.00	0.00	0.00	0.00	0.00	0	0	0	0	400.0000
539	152.00	-11.85	90.00	-40.00	0.9935	100.00	1	400.00	100.00	0.00	0.00	0.00	0.00	0.00	0.00	0	0	0	0	400.0000
552	30.60	0.88	20.00	-20.00	0.9983	100.00	1	100.00	20.40	0.00	0.00	0.00	0.00	0.00	0.00	0	0	0	0	100.0000
559	51.50	-21.96	30.00	-30.00	0.9546	100.00	1	200.00	34.33	0.00	0.00	0.00	0.00	0.00	0.00	0	0	0	0	200.0000
564	21.77	18.91	30.00	-10.00	1.0245	100.00	1	100.00	14.51	0.00	0.00	0.00	0.00	0.00	0.00	0	0	0	0	100.0000
572	7.00	1.83	10.00	-10.00	1.0043	100.00	1	100.00	4.67	0.00	0.00	0.00	0.00	0.00	0.00	0	0	0	0	100.0000
575	18.09	16.51	30.00	-10.00	1.0167	100.00	1	100.00	12.06	0.00	0.00	0.00	0.00	0.00	0.00	0	0	0	0	100.0000
576	18.09	16.51	30.00	-10.00	1.0167	100.00	1	100.00	12.06	0.00	0.00	0.00	0.00	0.00	0.00	0	0	0	0	100.0000
577	18.09	16.51	30.00	-10.00	1.0167	100.00	1	100.00	12.06	0.00	0.00	0.00	0.00	0.00	0.00	0	0	0	0	100.0000
581	18.09	16.51	30.00	-10.00	1.0167	100.00	1	100.00	12.06	0.00	0.00	0.00	0.00	0.00	0.00	0	0	0	0	100.0000
585	72.61	78.20	60.00	-20.00	1.0416	100.00	1	200.00	48.41	0.00	0.00	0.00	0.00	0.00	0.00	0	0	0	0	200.0000
589	13.38	1.64	10.00	-10.00	1.0076	100.00	1	100.00	8.92	0.00	0.00	0.00	0.00	0.00	0.00	0	0	0	0	100.0000
610	31.95	8.48	30.00	-10.00	1.0197	100.00	1	100.00	21.30	0.00	0.00	0.00	0.00	0.00	0.00	0	0	0	0	100.0000
614	34.81	29.16	40.00	-10.00	1.0319	100.00	1	100.00	23.21	0.00	0.00	0.00	0.00	0.00	0.00	0	0	0	0	100.0000
615	34.81	29.16	40.00	-10.00	1.0319	100.00	1	100.00	23.21	0.00	0.00	0.00	0.00	0.00	0.00	0	0	0	0	100.0000
619	42.50	42.12	40.00	-10.00	1.0315	100.00	1	100.00	28.33	0.00	0.00	0.00	0.00	0.00	0.00	0	0	0	0	100.0000
621	5.80	0.72	10.00	-10.00	1.0039	100.00	1	100.00	3.87	0.00	0.00	0.00	0.00	0.00	0.00	0	0	0	0	100.0000
623	36.03	28.36	30.00	-10.00	1.0454	100.00	1	100.00	24.02	0.00	0.00	0.00	0.00	0.00	0.00	0	0	0	0	100.0000
626	43.29	56.52	60.00	-20.00	1.0358	100.00	1	100.00	28.86	0.00	0.00	0.00	0.00	0.00	0.00	0	0	0	0	100.0000
635	0.13	0.43	10.00	-10.00	1.0235	100.00	1	100.00	0.09	0.00	0.00	0.00	0.00	0.00	0.00	0	0	0	0	100.0000
637	25.22	31.38	30.00	-10.00	1.0462	100.00	1	100.00	16.81	0.00	0.00	0.00	0.00	0.00	0.00	0	0	0	0	100.0000
646	333.10	140.11	210.00	-50.00	1.0304	100.00	1	700.00	200.00	0.00	0.00	0.00	0.00	0.00	0.00	0	0	0	0	700.0000
648	322.05	39.54	210.00	-50.00	1.0078	100.00	1	700.00	200.00	0.00	0.00	0.00	0.00	0.00	0.00	0	0	0	0	700.0000
649	333.10	140.11	210.00	-50.00	1.0304	100.00	1	700.00	200.00	0.00	0.00	0.00	0.00	0.00	0.00	0	0	0	0	700.0000
651	188.27	246.69	210.00	-50.00	1.0284	100.00	1	400.00	100.00	0.00	0.00	0.00	0.00	0.00	0.00	0	0	0	0	400.0000
652	188.27	246.69	210.00	-50.00	1.0284	100.00	1	400.00	100.00	0.00	0.00	0.00	0.00	0.00	0.00	0	0	0	0	400.0000
654	92.40	22.82	60.00	-20.00	1.0145	100.00	1	200.00	61.60	0.00	0.00	0.00	0.00	0.00	0.00	0	0	0	0	200.0000
660	33.21	14.56	30.00	-10.00	1.0227	100.00	1	100.00	22.14	0.00	0.00	0.00	0.00	0.00	0.00	0	0	0	0	100.0000
666	31.30	15.47	30.00	-10.00	1.0187	100.00	1	100.00	20.87	0.00	0.00	0.00	0.00	0.00	0.00	0	0	0	0	100.0000
671	25.20	1.25	20.00	-10.00	0.9991	100.00	1	100.00	16.80	0.00	0.00	0.00	0.00	0.00	0.00	0	0	0	0	100.0000
676	274.65	81.52	160.00	-40.00	1.0181	100.00	1	600.00	100.00	0.00	0.00	0.00	0.00	0.00	0.00	0	0	0	0	600.0000
681	84.68	13.51	60.00	-20.00	1.0066	100.00	1	200.00	56.45	0.00	0.00	0.00	0.00	0.00	0.00	0	0	0	0	200.0000
684	68.89	51.84	60.00	-20.00	1.0356	100.00	1	200.00	45.93	0.00	0.00	0.00	0.00	0.00	0.00	0	0	0	0	200.0000
693	209.96	241.73	160.00	-40.00	1.0390	100.00	1	500.00	100.00	0.00	0.00	0.00	0.00	0.00	0.00	0	0	0	0	500.0000
695	8.40	1.97	10.00	-10.00	1.0105	100.00	1	100.00	5.60	0.00	0.00	0.00	0.00	0.00	0.00	0	0	0	0	100.0000
698	26.72	7.16	20.00	-10.00	1.0185	100.00	1	100.00	17.81	0.00	0.00	0.00	0.00	0.00	0.00	0	0	0	0	100.0000
709	626.68	810.90	520.00	-120.00	1.0517	100.00	1	1300.00	400.00	0.00	0.00	0.00	0.00	0.00	0.00	0	0	0	0	1300.0000
715	23.90	9.46	30.00	-10.00	1.0078	100.00	1	100.00	15.93	0.00	0.00	0.00	0.00	0.00	0.00	0	0	0	0	100.0000
717	23.12	9.23	10.00	0.00	1.0276	100.00	1	100.00	15.41	0.00	0.00	0.00	0.00	0.00	0.00	0	0	0	0	100.0000
721	74.35	-16.58	60.00	-20.00	0.9924	100.00	1	200.00	49.57	0.00	0.00	0.00	0.00	0.00	0.00	0	0	0	0	200.0000
724	35.50	31.45	30.00	-10.00	1.0452	100.00	1	100.00	23.67	0.00	0.00	0.00	0.00	0.00	0.00	0	0	0	0	100.0000
730	98.46	7.63	60.00	-20.00	1.0146	100.00	1	200.00	65.64	0.00	0.00	0.00	0.00	0.00	0.00	0	0	0	0	200.0000
731	98.46	7.63	60.00	-20.00	1.0146	100.00	1	200.00	65.64	0.00	0.00	0.00	0.00	0.00	0.00	0	0	0	0	200.0000
732	98.46	7.63	60.00	-20.00	1.0146	100.00	1	200.00	65.64	0.00	0.00	0.00	0.00	0.00	0.00	0	0	0	0	200.0000
734	98.46	7.63	60.00	-20.00	1.0146	100.00	1	200.00	65.64	0.00	0.00	0.00	0.00	0.00	0.00	0	0	0	0	200.0000
746	16.00	-0.05	10.00	-10.00	0.9942	100.00	1	100.00	10.67	0.00	0.00	0.00	0.00	0.00	0.00	0	0	0	0	100.0000
749	22.58	4.69	30.00	-10.00	1.0098	100.00	1	100.00	15.05	0.00	0.00	0.00	0.00	0.00	0.00	0	0	0	0	100.0000
750	22.58	4.69	30.00	-10.00	1.0098	100.00	1	100.00	15.05	0.00	0.00	0.00	0.00	0.00	0.00	0	0	0	0	100.0000
751	22.58	4.69	30.00	-10.00	1.0098	100.00	1	100.00	15.05	0.00	0.00	0.00	0.00	0.00	0.00	0	0	0	0	100.0000
753	20.64	15.01	30.00	-10.00	1.0189	100.00	1	100.00	13.76	0.00	0.00	0.00	0.00	0.00	0.00	0	0	0	0	100.0000
754	64.65	35.63	60.00	-20.00	1.0097	100.00	1	200.00	43.10	0.00	0.00	0.00	0.00	0.00	0.00	0	0	0	0	200.0000
765	78.37	28.10	60.00	-20.00	1.0330	100.00	1	200.00	52.25	0.00	0.00	0.00	0.00	0.00	0.00	0	0	0	0	200.0000
...
];

%% generator cost data
mpc.gencost = [
2	0	0	4	0.0000	0.000	1.000	0.00
2	0	0	4	0.0000	0.000	1.000	0.00
2	0	0	4	0.0000	0.000	1.000	0.00
2	0	0	4	0.0000	0.000	1.000	0.00
2	0	0	4	0.0000	0.000	1.000	0.00
2	0	0	4	0.0000	0.000	1.000	0.00
2	0	0	4	0.0000	0.000	1.000	0.00
2	0	0	4	0.0000	0.000	1.000	0.00
2	0	0	4	0.0000	0.000	1.000	0.00
2	0	0	4	0.0000	0.000	1.000	0.00
2	0	0	4	0.0000	0.000	1.000	0.00
2	0	0	4	0.0000	0.000	1.000	0.00
2	0	0	4	0.0000	0.000	1.000	0.00
2	0	0	4	0.0000	0.000	1.000	0.00
2	0	0	4	0.0000	0.000	1.000	0.00
2	0	0	4	0.0000	0.000	1.000	0.00
2	0	0	4	0.0000	0.000	1.000	0.00
2	0	0	4	0.0000	0.000	1.000	0.00
2	0	0	4	0.0000	0.000	1.000	0.00
2	0	0	4	0.0000	0.000	1.000	0.00
2	0	0	4	0.0000	0.000	1.000	0.00
2	0	0	4	0.0000	0.000	1.000	0.00
2	0	0	4	0.0000	0.000	1.000	0.00
2	0	0	4	0.0000	0.000	1.000	0.00
2	0	0	4	0.0000	0.000	1.000	0.00
2	0	0	4	0.0000	0.000	1.000	0.00
2	0	0	4	0.0000	0.000	1.000	0.00
2	0	0	4	0.0000	0.000	1.000	0.00
2	0	0	4	0.0000	0.000	1.000	0.00
2	0	0	4	0.0000	0.000	1.000	0.00
2	0	0	4	0.0000	0.000	1.000	0.00
2	0	0	4	0.0000	0.000	1.000	0.00
2	0	0	4	0.0000	0.000	1.000	0.00
2	0	0	4	0.0000	0.000	1.000	0.00
2	0	0	4	0.0000	0.000	1.000	0.00
2	0	0	4	0.0000	0.000	1.000	0.00
2	0	0	4	0.0000	0.000	1.000	0.00
2	0	0	4	0.0000	0.000	1.000	0.00
2	0	0	4	0.0000	0.000	1.000	0.00
2	0	0	4	0.0000	0.000	1.000	0.00
2	0	0	4	0.0000	0.000	1.000	0.00
2	0	0	4	0.0000	0.000	1.000	0.00
2	0	0	4	0.0000	0.000	1.000	0.00
2	0	0	4	0.0000	0.000	1.000	0.00
2	0	0	4	0.0000	0.000	1.000	0.00
2	0	0	4	0.0000	0.000	1.000	0.00
2	0	0	4	0.0000	0.000	1.000	0.00
2	0	0	4	0.0000	0.000	1.000	0.00
2	0	0	4	0.0000	0.000	1.000	0.00
2	0	0	4	0.0000	0.000	1.000	0.00
2	0	0	4	0.0000	0.000	1.000	0.00
2	0	0	4	0.0000	0.000	1.000	0.00
2	0	0	4	0.0000	0.000	1.000	0.00
2	0	0	4	0.0000	0.000	1.000	0.00
2	0	0	4	0.0000	0.000	1.000	0.00
2	0	0	4	0.0000	0.000	1.000	0.00
2	0	0	4	0.0000	0.000	1.000	0.00
2	0	0	4	0.0000	0.000	1.000	0.00
2	0	0	4	0.0000	0.000	1.000	0.00
2	0	0	4	0.0000	0.000	1.000	0.00
2	0	0	4	0.0000	0.000	1.000	0.00
2	0	0	4	0.0000	0.000	1.000	0.00
2	0	0	4	0.0000	0.000	1.000	0.00
2	0	0	4	0.0000	0.000	1.000	0.00
2	0	0	4	0.0000	0.000	1.000	0.00
2	0	0	4	0.0000	0.000	1.000	0.00
2	0	0	4	0.0000	0.000	1.000	0.00
2	0	0	4	0.0000	0.000	1.000	0.00
2	0	0	4	0.0000	0.000	1.000	0.00
2	0	0	4	0.0000	0.000	1.000	0.00
2	0	0	4	0.0000	0.000	1.000	0.00
2	0	0	4	0.0000	0.000	1.000	0.00
2	0	0	4	0.0000	0.000	1.000	0.00
2	0	0	4	0.0000	0.000	1.000	0.00
2	0	0	4	0.0000	0.000	1.000	0.00
2	0	0	4	0.0000	0.000	1.000	0.00
2	0	0	4	0.0000	0.000	1.000	0.00
2	0	0	4	0.0000	0.000	1.000	0.00
2	0	0	4	0.0000	0.000	1.000	0.00
2	0	0	4	0.0000	0.000	1.000	0.00
2	0	0	4	0.0000	0.000	1.000	0.00
2	0	0	4	0.0000	0.000	1.000	0.00
2	0	0	4	0.0000	0.000	1.000	0.00
2	0	0	4	0.0000	0.000	1.000	0.00
2	0	0	4	0.0000	0.000	1.000	0.00
2	0	0	4	0.0000	0.000	1.000	0.00
2	0	0	4	0.0000	0.000	1.000	0.00
2	0	0	4	0.0000	0.000	1.000	0.00
2	0	0	4	0.0000	0.000	1.000	0.00
2	0	0	4	0.0000	0.000	1.000	0.00
2	0	0	4	0.0000	0.000	1.000	0.00
2	0	0	4	0.0000	0.000	1.000	0.00
2	0	0	4	0.0000	0.000	1.000	0.00
2	0	0	4	0.0000	0.000	1.000	0.00
2	0	0	4	0.0000	0.000	1.000	0.00
2	0	0	4	0.0000	0.000	1.000	0.00
2	0	0	4	0.0000	0.000	1.000	0.00
2	0	0	4	0.0000	0.000	1.000	0.00
2	0	0	4	0.0000	0.000	1.000	0.00
2	0	0	4	0.0000	0.000	1.000	0.00
2	0	0	4	0.0000	0.000	1.000	0.00
2	0	0	4	0.0000	0.000	1.000	0.00
2	0	0	4	0.0000	0.000	1.000	0.00
2	0	0	4	0.0000	0.000	1.000	0.00
2	0	0	4	0.0000	0.000	1.000	0.00
2	0	0	4	0.0000	0.000	1.000	0.00
2	0	0	4	0.0000	0.000	1.000	0.00
2	0	0	4	0.0000	0.000	1.000	0.00
2	0	0	4	0.0000	0.000	1.000	0.00
2	0	0	4	0.0000	0.000	1.000	0.00
2	0	0	4	0.0000	0.000	1.000	0.00
2	0	0	4	0.0000	0.000	1.000	0.00
2	0	0	4	0.0000	0.000	1.000	0.00
2	0	0	4	0.0000	0.000	1.000	0.00
2	0	0	4	0.0000	0.000	1.000	0.00
2	0	0	4	0.0000	0.000	1.000	0.00
2	0	0	4	0.0000	0.000	1.000	0.00
2	0	0	4	0.0000	0.000	1.000	0.00
2	0	0	4	0.0000	0.000	1.000	0.00
2	0	0	4	0.0000	0.000	1.000	0.00
2	0	0	4	0.0000	0.000	1.000	0.00
2	0	0	4	0.0000	0.000	1.000	0.00
2	0	0	4	0.0000	0.000	1.000	0.00
2	0	0	4	0.0000	0.000	1.000	0.00
2	0	0	4	0.0000	0.000	1.000	0.00
2	0	0	4	0.0000	0.000	1.000	0.00
2	0	0	4	0.0000	0.000	1.000	0.00
2	0	0	4	0.0000	0.000	1.000	0.00
2	0	0	4	0.0000	0.000	1.000	0.00
2	0	0	4	0.0000	0.000	1.000	0.00
2	0	0	4	0.0000	0.000	1.000	0.00
2	0	0	4	0.0000	0.000	1.000	0.00
2	0	0	4	0.0000	0.000	1.000	0.00
2	0	0	4	0.0000	0.000	1.000	0.00
2	0	0	4	0.0000	0.000	1.000	0.00
2	0	0	4	0.0000	0.000	1.000	0.00
2	0	0	4	0.0000	0.000	1.000	0.00
2	0	0	4	0.0000	0.000	1.000	0.00
2	0	0	4	0.0000	0.000	1.000	0.00
2	0	0	4	0.0000	0.000	1.000	0.00
2	0	0	4	0.0000	0.000	1.000	0.00
2	0	0	4	0.0000	0.000	1.000	0.00
2	0	0	4	0.0000	0.000	1.000	0.00
2	0	0	4	0.0000	0.000	1.000	0.00
2	0	0	4	0.0000	0.000	1.000	0.00
2	0	0	4	0.0000	0.000	1.000	0.00
2	0	0	4	0.0000	0.000	1.000	0.00
2	0	0	4	0.0000	0.000	1.000	0.00
2	0	0	4	0.0000	0.000	1.000	0.00
2	0	0	4	0.0000	0.000	1.000	0.00
2	0	0	4	0.0000	0.000	1.000	0.00
2	0	0	4	0.0000	0.000	1.000	0.00
2	0	0	4	0.0000	0.000	1.000	0.00
2	0	0	4	0.0000	0.000	1.000	0.00
2	0	0	4	0.0000	0.000	1.000	0.00
2	0	0	4	0.0000	0.000	1.000	0.00
2	0	0	4	0.0000	0.000	1.000	0.00
2	0	0	4	0.0000	0.000	1.000	0.00
2	0	0	4	0.0000	0.000	1.000	0.00
2	0	0	4	0.0000	0.000	1.000	0.00
2	0	0	4	0.0000	0.000	1.000	0.00
2	0	0	4	0.0000	0.000	1.000	0.00
2	0	0	4	0.0000	0.000	1.000	0.00
2	0	0	4	0.0000	0.000	1.000	0.00
2	0	0	4	0.0000	0.000	1.000	0.00
2	0	0	4	0.0000	0.000	1.000	0.00
2	0	0	4	0.0000	0.000	1.000	0.00
2	0	0	4	0.0000	0.000	1.000	0.00
2	0	0	4	0.0000	0.000	1.000	0.00
2	0	0	4	0.0000	0.000	1.000	0.00
2	0	0	4	0.0000	0.000	1.000	0.00
2	0	0	4	0.0000	0.000	1.000	0.00
2	0	0	4	0.0000	0.000	1.000	0.00
2	0	0	4	0.0000	0.000	1.000	0.00
2	0	0	4	0.0000	0.000	1.000	0.00
2	0	0	4	0.0000	0.000	1.000	0.00
2	0	0	4	0.0000	0.000	1.000	0.00
2	0	0	4	0.0000	0.000	1.000	0.00
2	0	0	4	0.0000	0.000	1.000	0.00
2	0	0	4	0.0000	0.000	1.000	0.00
2	0	0	4	0.0000	0.000	1.000	0.00
2	0	0	4	0.0000	0.000	1.000	0.00
2	0	0	4	0.0000	0.000	1.000	0.00
2	0	0	4	0.0000	0.000	1.000	0.00
2	0	0	4	0.0000	0.000	1.000	0.00
2	0	0	4	0.0000	0.000	1.000	0.00
2	0	0	4	0.0000	0.000	1.000	0.00
2	0	0	4	0.0000	0.000	1.000	0.00
2	0	0	4	0.0000	0.000	1.000	0.00
2	0	0	4	0.0000	0.000	1.000	0.00
2	0	0	4	0.0000	0.000	1.000	0.00
2	0	0	4	0.0000	0.000	1.000	0.00
2	0	0	4	0.0000	0.000	1.000	0.00
2	0	0	4	0.0000	0.000	1.000	0.00
2	0	0	4	0.0000	0.000	1.000	0.00
2	0	0	4	0.0000	0.000	1.000	0.00
2	0	0	4	0.0000	0.000	1.000	0.00
2	0	0	4	0.0000	0.000	1.000	0.00
2	0	0	4	0.0000	0.000	1.000	0.00
2	0	0	4	0.0000	0.000	1.000	0.00
...
];

%% branch data
mpc.branch = [
3876	1	0.003521	0.140801	0.00000	0.00	0.00	0.00	1.00473	0.000	1	0.00	0.00	0.00	0.00	0.00	0.00
1244	2	0.001062	0.003649	0.00000	0.00	0.00	0.00	0.00000	0.000	1	0.00	0.00	0.00	0.00	0.00	0.00
2	3652	0.000000	0.000222	0.00000	0.00	0.00	0.00	0.00000	0.000	1	0.00	0.00	0.00	0.00	0.00	0.00
12710	2	0.000000	0.000222	0.00000	0.00	0.00	0.00	0.00000	0.000	1	0.00	0.00	0.00	0.00	0.00	0.00
6957	3	0.000059	0.022767	0.00000	0.00	0.00	0.00	1.00687	0.000	1	0.00	0.00	0.00	0.00	0.00	0.00
3	11181	0.007750	0.035010	0.00000	0.00	0.00	0.00	0.00000	0.000	1	0.00	0.00	0.00	0.00	0.00	0.00
3	11505	0.019810	0.091539	0.00000	0.00	0.00	0.00	0.00000	0.000	1	0.00	0.00	0.00	0.00	0.00	0.00
3	11505	0.019440	0.093479	0.00000	0.00	0.00	0.00	0.00000	0.000	1	0.00	0.00	0.00	0.00	0.00	0.00
4	572	0.000000	0.480000	0.00000	0.00	0.00	0.00	1.00445	0.000	1	0.00	0.00	0.00	0.00	0.00	0.00
4	2460	0.000000	0.240000	0.00000	0.00	0.00	0.00	1.00464	0.000	1	0.00	0.00	0.00	0.00	0.00	0.00
4	3507	0.000340	0.001620	0.00000	0.00	0.00	0.00	0.00000	0.000	1	0.00	0.00	0.00	0.00	0.00	0.00
4	7182	0.000510	0.002420	0.00000	0.00	0.00	0.00	0.00000	0.000	1	0.00	0.00	0.00	0.00	0.00	0.00
4	7777	0.000000	0.240000	0.00000	0.00	0.00	0.00	1.00707	0.000	1	0.00	0.00	0.00	0.00	0.00	0.00
4	8857	0.000000	0.480000	0.00000	0.00	0.00	0.00	1.00445	0.000	1	0.00	0.00	0.00	0.00	0.00	0.00
5	11276	0.010130	0.042380	0.00000	0.00	0.00	0.00	0.00000	0.000	1	0.00	0.00	0.00	0.00	0.00	0.00
5	12839	0.001841	0.008800	0.00000	0.00	0.00	0.00	0.00000	0.000	1	0.00	0.00	0.00	0.00	0.00	0.00
6	2590	0.003610	0.015211	0.00000	0.00	0.00	0.00	0.00000	0.000	1	0.00	0.00	0.00	0.00	0.00	0.00
3301	6	0.002169	0.009110	0.00000	0.00	0.00	0.00	0.00000	0.000	1	0.00	0.00	0.00	0.00	0.00	0.00
4266	6	0.000788	0.040317	0.00000	0.00	0.00	0.00	0.98214	0.000	1	0.00	0.00	0.00	0.00	0.00	0.00
7	3830	0.015729	0.088240	0.00000	0.00	0.00	0.00	0.00000	0.000	1	0.00	0.00	0.00	0.00	0.00	0.00
7	7944	0.002909	0.014320	0.00000	0.00	0.00	0.00	0.00000	0.000	1	0.00	0.00	0.00	0.00	0.00	0.00
8	3412	0.002119	0.084719	0.00000	0.00	0.00	0.00	1.01052	0.000	1	0.00	0.00	0.00	0.00	0.00	0.00
8	3414	0.002119	0.084719	0.00000	0.00	0.00	0.00	1.01052	0.000	1	0.00	0.00	0.00	0.00	0.00	0.00
8	3415	0.002119	0.084719	0.00000	0.00	0.00	0.00	1.01052	0.000	1	0.00	0.00	0.00	0.00	0.00	0.00
8	3416	0.002119	0.084719	0.00000	0.00	0.00	0.00	1.01052	0.000	1	0.00	0.00	0.00	0.00	0.00	0.00
4204	8	0.000180	0.002240	0.00000	0.00	0.00	0.00	0.00000	0.000	1	0.00	0.00	0.00	0.00	0.00	0.00
8	4421	0.000460	0.007500	0.00000	0.00	0.00	0.00	0.00000	0.000	1	0.00	0.00	0.00	0.00	0.00	0.00
6756	8	0.000580	0.007360	0.00000	0.00	0.00	0.00	0.00000	0.000	1	0.00	0.00	0.00	0.00	0.00	0.00
8	7544	0.002119	0.084719	0.00000	0.00	0.00	0.00	1.01052	0.000	1	0.00	0.00	0.00	0.00	0.00	0.00
8107	8	0.000340	0.004660	0.00000	0.00	0.00	0.00	0.00000	0.000	1	0.00	0.00	0.00	0.00	0.00	0.00
8	8598	0.002119	0.084719	0.00000	0.00	0.00	0.00	1.01052	0.000	1	0.00	0.00	0.00	0.00	0.00	0.00
8	9188	0.002119	0.084719	0.00000	0.00	0.00	0.00	1.01053	0.000	1	0.00	0.00	0.00	0.00	0.00	0.00
8	9189	0.002119	0.084719	0.00000	0.00	0.00	0.00	1.01053	0.000	1	0.00	0.00	0.00	0.00	0.00	0.00
8	9190	0.002119	0.084719	0.00000	0.00	0.00	0.00	1.01053	0.000	1	0.00	0.00	0.00	0.00	0.00	0.00
8	9191	0.002119	0.084719	0.00000	0.00	0.00	0.00	1.01053	0.000	1	0.00	0.00	0.00	0.00	0.00	0.00
8	10521	0.002119	0.084719	0.00000	0.00	0.00	0.00	1.01052	0.000	1	0.00	0.00	0.00	0.00	0.00	0.00
8	10522	0.002119	0.084719	0.00000	0.00	0.00	0.00	1.01052	0.000	1	0.00	0.00	0.00	0.00	0.00	0.00
9	2936	0.001960	0.020490	0.00000	0.00	0.00	0.00	0.00000	0.000	1	0.00	0.00	0.00	0.00	0.00	0.00
9	2951	0.000354	0.028765	0.00000	0.00	0.00	0.00	0.93646	0.000	1	0.00	0.00	0.00	0.00	0.00	0.00
9	6777	0.001240	0.012730	0.00000	0.00	0.00	0.00	0.00000	0.000	1	0.00	0.00	0.00	0.00	0.00	0.00
9	6905	0.001580	0.015190	0.00000	0.00	0.00	0.00	0.00000	0.000	1	0.00	0.00	0.00	0.00	0.00	0.00
9	7711	0.000070	0.000290	0.00000	0.00	0.00	0.00	0.00000	0.000	1	0.00	0.00	0.00	0.00	0.00	0.00
9	7889	0.000090	0.000790	0.00000	0.00	0.00	0.00	0.00000	0.000	1	0.00	0.00	0.00	0.00	0.00	0.00
9	11015	0.001060	0.009890	0.00000	0.00	0.00	0.00	0.00000	0.000	1	0.00	0.00	0.00	0.00	0.00	0.00
10	6376	0.035174	0.062992	0.00000	0.00	0.00	0.00	0.00000	0.000	1	0.00	0.00	0.00	0.00	0.00	0.00
10	9275	0.015901	0.059529	0.00000	0.00	0.00	0.00	0.00000	0.000	1	0.00	0.00	0.00	0.00	0.00	0.00
11	1019	0.000070	0.000680	0.00000	0.00	0.00	0.00	0.00000	0.000	1	0.00	0.00	0.00	0.00	0.00	0.00
11	3201	0.000000	0.056670	0.00000	0.00	0.00	0.00	1.00706	0.000	1	0.00	0.00	0.00	0.00	0.00	0.00
11	8816	0.000000	0.045450	0.00000	0.00	0.00	0.00	1.00659	0.000	1	0.00	0.00	0.00	0.00	0.00	0.00
11	9103	0.006690	0.052720	0.00000	0.00	0.00	0.00	0.00000	0.000	1	0.00	0.00	0.00	0.00	0.00	0.00
11	12266	0.000000	0.056670	0.00000	0.00	0.00	0.00	1.00706	0.000	1	0.00	0.00	0.00	0.00	0.00	0.00
11	12420	0.011290	0.053810	0.00000	0.00	0.00	0.00	0.00000	0.000	1	0.00	0.00	0.00	0.00	0.00	0.00
11	12491	0.003000	0.030680	0.00000	0.00	0.00	0.00	0.00000	0.000	1	0.00	0.00	0.00	0.00	0.00	0.00
11904	12	0.000531	0.021225	0.00000	0.00	0.00	0.00	1.02368	0.000	1	0.00	0.00	0.00	0.00	0.00	0.00
2477	13	0.000000	0.046721	0.00000	0.00	0.00	0.00	0.91597	0.000	1	0.00	0.00	0.00	0.00	0.00	0.00
13	6730	0.005450	0.042990	0.00000	0.00	0.00	0.00	0.00000	0.000	1	0.00	0.00	0.00	0.00	0.00	0.00
13044	13	0.016160	0.051890	0.00000	0.00	0.00	0.00	0.00000	0.000	1	0.00	0.00	0.00	0.00	0.00	0.00
4110	14	0.000599	0.001860	0.00000	0.00	0.00	0.00	0.00000	0.000	1	0.00	0.00	0.00	0.00	0.00	0.00
15	7520	0.000000	0.000280	0.00000	0.00	0.00	0.00	0.00000	0.000	1	0.00	0.00	0.00	0.00	0.00	0.00
16	2338	0.004271	0.016431	0.00000	0.00	0.00	0.00	0.00000	0.000	1	0.00	0.00	0.00	0.00	0.00	0.00
16	3402	0.002320	0.009280	0.00000	0.00	0.00	0.00	0.00000	0.000	1	0.00	0.00	0.00	0.00	0.00	0.00
4038	17	0.004039	0.023081	0.00000	0.00	0.00	0.00	0.00000	0.000	1	0.00	0.00	0.00	0.00	0.00	0.00
4113	17	0.000599	0.003560	0.00000	0.00	0.00	0.00	0.00000	0.000	1	0.00	0.00	0.00	0.00	0.00	0.00
6626	17	0.011219	0.052450	0.00000	0.00	0.00	0.00	0.00000	0.000	1	0.00	0.00	0.00	0.00	0.00	0.00
5209	18	0.005208	0.208268	0.00000	0.00	0.00	0.00	1.01469	0.000	1	0.00	0.00	0.00	0.00	0.00	0.00
13129	19	0.000130	0.001320	0.00000	0.00	0.00	0.00	0.00000	0.000	1	0.00	0.00	0.00	0.00	0.00	0.00
13625	19	0.000159	0.001461	0.00000	0.00	0.00	0.00	0.00000	0.000	1	0.00	0.00	0.00	0.00	0.00	0.00
20	5458	0.025220	0.081000	0.00000	0.00	0.00	0.00	0.00000	0.000	1	0.00	0.00	0.00	0.00	0.00	0.00
20	6164	0.043750	0.140480	0.00000	0.00	0.00	0.00	0.00000	0.000	1	0.00	0.00	0.00	0.00	0.00	0.00
20	8363	0.005910	0.018980	0.00000	0.00	0.00	0.00	0.00000	0.000	1	0.00	0.00	0.00	0.00	0.00	0.00
10880	20	0.018020	0.057860	0.00000	0.00	0.00	0.00	0.00000	0.000	1	0.00	0.00	0.00	0.00	0.00	0.00
21	5085	0.002119	0.084719	0.00000	0.00	0.00	0.00	1.01175	0.000	1	0.00	0.00	0.00	0.00	0.00	0.00
21	5086	0.002119	0.084719	0.00000	0.00	0.00	0.00	1.01175	0.000	1	0.00	0.00	0.00	0.00	0.00	0.00
21	5091	0.002119	0.084719	0.00000	0.00	0.00	0.00	1.01175	0.000	1	0.00	0.00	0.00	0.00	0.00	0.00
21	5092	0.002119	0.084719	0.00000	0.00	0.00	0.00	1.01175	0.000	1	0.00	0.00	0.00	0.00	0.00	0.00
10548	21	-0.004010	0.007940	0.00000	0.00	0.00	0.00	0.00000	0.000	1	0.00	0.00	0.00	0.00	0.00	0.00
22	2886	0.024581	0.402459	0.00000	0.00	0.00	0.00	0.00000	0.000	1	0.00	0.00	0.00	0.00	0.00	0.00
3881	22	0.043880	0.657934	0.00000	0.00	0.00	0.00	0.00000	0.000	1	0.00	0.00	0.00	0.00	0.00	0.00
4593	22	0.189870	0.937128	0.00000	0.00	0.00	0.00	0.00000	0.000	1	0.00	0.00	0.00	0.00	0.00	0.00
22	5227	0.227149	1.244607	0.00000	0.00	0.00	0.00	0.00000	0.000	1	0.00	0.00	0.00	0.00	0.00	0.00
22	5227	0.000000	0.000200	0.00000	0.00	0.00	0.00	0.00000	0.000	1	0.00	0.00	0.00	0.00	0.00	0.00
22	6561	0.001570	0.007031	0.00000	0.00	0.00	0.00	0.00000	0.000	1	0.00	0.00	0.00	0.00	0.00	0.00
10203	22	0.125250	0.756384	0.00000	0.00	0.00	0.00	0.00000	0.000	1	0.00	0.00	0.00	0.00	0.00	0.00
22	12980	0.001630	0.007031	0.00000	0.00	0.00	0.00	0.00000	0.000	1	0.00	0.00	0.00	0.00	0.00	0.00
23	1723	0.000400	0.004390	0.00000	0.00	0.00	0.00	0.00000	0.000	1	0.00	0.00	0.00	0.00	0.00	0.00
23	1723	0.000450	0.003990	0.00000	0.00	0.00	0.00	0.00000	0.000	1	0.00	0.00	0.00	0.00	0.00	0.00
23	3904	0.002119	0.084719	0.00000	0.00	0.00	0.00	1.00695	0.000	1	0.00	0.00	0.00	0.00	0.00	0.00
23	3914	0.002119	0.084719	0.00000	0.00	0.00	0.00	1.00695	0.000	1	0.00	0.00	0.00	0.00	0.00	0.00
23	11978	0.002119	0.084719	0.00000	0.00	0.00	0.00	1.00695	0.000	1	0.00	0.00	0.00	0.00	0.00	0.00
23	11979	0.002119	0.084719	0.00000	0.00	0.00	0.00	1.00695	0.000	1	0.00	0.00	0.00	0.00	0.00	0.00
23	11980	0.002119	0.084719	0.00000	0.00	0.00	0.00	1.00695	0.000	1	0.00	0.00	0.00	0.00	0.00	0.00
13539	23	0.000190	0.001980	0.00000	0.00	0.00	0.00	0.00000	0.000	1	0.00	0.00	0.00	0.00	0.00	0.00
13539	23	0.000190	0.002140	0.00000	0.00	0.00	0.00	0.00000	0.000	1	0.00	0.00	0.00	0.00	0.00	0.00
24	1728	0.030240	0.085372	0.00000	0.00	0.00	0.00	0.00000	0.000	1	0.00	0.00	0.00	0.00	0.00	0.00
8786	24	0.028132	0.097008	0.00000	0.00	0.00	0.00	0.00000	0.000	1	0.00	0.00	0.00	0.00	0.00	0.00
24	10834	0.041570	0.149240	0.00000	0.00	0.00	0.00	0.00000	0.000	1	0.00	0.00	0.00	0.00	0.00	0.00
24	12828	0.038661	0.123091	0.00000	0.00	0.00	0.00	0.00000	0.000	1	0.00	0.00	0.00	0.00	0.00	0.00
474	25	0.000000	0.041737	0.00000	0.00	0.00	0.00	0.95629	0.000	1	0.00	0.00	0.00	0.00	0.00	0.00
474	25	0.000000	0.034784	0.00000	0.00	0.00	0.00	0.95786	0.000	1	0.00	0.00	0.00	0.00	0.00	0.00
1500	25	0.007360	0.058050	0.00000	0.00	0.00	0.00	0.00000	0.000	1	0.00	0.00	0.00	0.00	0.00	0.00
25	4293	0.003940	0.012660	0.00000	0.00	0.00	0.00	0.00000	0.000	1	0.00	0.00	0.00	0.00	0.00	0.00
25	4410	0.025340	0.081360	0.00000	0.00	0.00	0.00	0.00000	0.000	1	0.00	0.00	0.00	0.00	0.00	0.00
25	5801	0.034910	0.112100	0.00000	0.00	0.00	0.00	0.00000	0.000	1	0.00	0.00	0.00	0.00	0.00	0.00
5415	26	0.000289	0.001380	0.00000	0.00	0.00	0.00	0.00000	0.000	1	0.00	0.00	0.00	0.00	0.00	0.00
7709	26	0.000320	0.001409	0.00000	0.00	0.00	0.00	0.00000	0.000	1	0.00	0.00	0.00	0.00	0.00	0.00
7709	26	0.000300	0.000961	0.00000	0.00	0.00	0.00	0.00000	0.000	1	0.00	0.00	0.00	0.00	0.00	0.00
26	9012	0.000130	0.000550	0.00000	0.00	0.00	0.00	0.00000	0.000	1	0.00	0.00	0.00	0.00	0.00	0.00
2951	27	0.000870	0.006591	0.00000	0.00	0.00	0.00	0.00000	0.000	1	0.00	0.00	0.00	0.00	0.00	0.00
28	2544	0.016157	0.035826	0.00000	0.00	0.00	0.00	0.00000	0.000	1	0.00	0.00	0.00	0.00	0.00	0.00
28	4542	0.003727	0.020529	0.00000	0.00	0.00	0.00	0.00000	0.000	1	0.00	0.00	0.00	0.00	0.00	0.00
28	8739	0.019992	0.079231	0.00000	0.00	0.00	0.00	0.00000	0.000	1	0.00	0.00	0.00	0.00	0.00	0.00
10614	28	0.011876	0.064967	0.00000	0.00	0.00	0.00	0.00000	0.000	1	0.00	0.00	0.00	0.00	0.00	0.00
8450	29	0.005208	0.208268	0.00000	0.00	0.00	0.00	1.00947	0.000	1	0.00	0.00	0.00	0.00	0.00	0.00
30	1176	0.006207	0.023959	0.00000	0.00	0.00	0.00	0.00000	0.000	1	0.00	0.00	0.00	0.00	0.00	0.00
30	13610	0.036744	0.106934	0.00000	0.00	0.00	0.00	0.00000	0.000	1	0.00	0.00	0.00	0.00	0.00	0.00
4841	31	0.000300	0.002669	0.00000	0.00	0.00	0.00	0.00000	0.000	1	0.00	0.00	0.00	0.00	0.00	0.00
31	8897	0.002119	0.084719	0.00000	0.00	0.00	0.00	1.00999	0.000	1	0.00	0.00	0.00	0.00	0.00	0.00
31	8908	0.002119	0.084719	0.00000	0.00	0.00	0.00	1.00999	0.000	1	0.00	0.00	0.00	0.00	0.00	0.00
31	8909	0.002119	0.084719	0.00000	0.00	0.00	0.00	1.00999	0.000	1	0.00	0.00	0.00	0.00	0.00	0.00
31	8910	0.002119	0.084719	0.00000	0.00	0.00	0.00	1.00999	0.000	1	0.00	0.00	0.00	0.00	0.00	0.00
32	3556	0.002030	0.024160	0.00000	0.00	0.00	0.00	0.00000	0.000	1	0.00	0.00	0.00	0.00	0.00	0.00
32	6212	0.001030	0.009870	0.00000	0.00	0.00	0.00	0.00000	0.000	1	0.00	0.00	0.00	0.00	0.00	0.00
32	6741	0.001000	0.014590	0.00000	0.00	0.00	0.00	0.00000	0.000	1	0.00	0.00	0.00	0.00	0.00	0.00
7339	32	0.000450	0.006080	0.00000	0.00	0.00	0.00	0.00000	0.000	1	0.00	0.00	0.00	0.00	0.00	0.00
32	7515	0.000410	0.003980	0.00000	0.00	0.00	0.00	0.00000	0.000	1	0.00	0.00	0.00	0.00	0.00	0.00
32	7515	0.000380	0.004830	0.00000	0.00	0.00	0.00	0.00000	0.000	1	0.00	0.00	0.00	0.00	0.00	0.00
32	9685	0.002560	0.034010	0.00000	0.00	0.00	0.00	0.00000	0.000	1	0.00	0.00	0.00	0.00	0.00	0.00
8692	33	0.003521	0.140801	0.00000	0.00	0.00	0.00	1.00432	0.000	1	0.00	0.00	0.00	0.00	0.00	0.00
34	246	0.000262	0.020993	0.00000	0.00	0.00	0.00	1.00784	0.000	1	0.00	0.00	0.00	0.00	0.00	0.00
34	7104	0.000870	0.008980	0.00000	0.00	0.00	0.00	0.00000	0.000	1	0.00	0.00	0.00	0.00	0.00	0.00
35	5582	0.000000	0.000222	0.00000	0.00	0.00	0.00	0.00000	0.000	1	0.00	0.00	0.00	0.00	0.00	0.00
1707	36	0.002300	0.015810	0.00000	0.00	0.00	0.00	0.00000	0.000	1	0.00	0.00	0.00	0.00	0.00	0.00
13300	36	0.001050	0.008770	0.00000	0.00	0.00	0.00	0.00000	0.000	1	0.00	0.00	0.00	0.00	0.00	0.00
1671	37	0.003809	0.013111	0.00000	0.00	0.00	0.00	0.00000	0.000	1	0.00	0.00	0.00	0.00	0.00	0.00
1837	37	0.003729	0.013218	0.00000	0.00	0.00	0.00	0.00000	0.000	1	0.00	0.00	0.00	0.00	0.00	0.00
7615	38	0.011240	0.039822	0.00000	0.00	0.00	0.00	0.00000	0.000	1	0.00	0.00	0.00	0.00	0.00	0.00
8073	38	0.028360	0.113400	0.00000	0.00	0.00	0.00	0.00000	0.000	1	0.00	0.00	0.00	0.00	0.00	0.00
9248	38	0.054000	0.121351	0.00000	0.00	0.00	0.00	0.00000	0.000	1	0.00	0.00	0.00	0.00	0.00	0.00
38	11338	0.043418	0.124111	0.00000	0.00	0.00	0.00	0.00000	0.000	1	0.00	0.00	0.00	0.00	0.00	0.00
13104	38	0.000000	0.000222	0.00000	0.00	0.00	0.00	0.00000	0.000	1	0.00	0.00	0.00	0.00	0.00	0.00
4568	39	0.000531	0.021225	0.00000	0.00	0.00	0.00	1.02559	0.000	1	0.00	0.00	0.00	0.00	0.00	0.00
375	40	0.000091	0.000961	0.00000	0.00	0.00	0.00	0.00000	0.000	1	0.00	0.00	0.00	0.00	0.00	0.00
1973	40	0.028180	0.116099	0.00000	0.00	0.00	0.00	0.00000	0.000	1	0.00	0.00	0.00	0.00	0.00	0.00
40	3035	0.003240	0.019120	0.00000	0.00	0.00	0.00	0.00000	0.000	1	0.00	0.00	0.00	0.00	0.00	0.00
40	5697	0.025773	1.030606	0.00000	0.00	0.00	0.00	1.00329	0.000	1	0.00	0.00	0.00	0.00	0.00	0.00
40	5698	0.025773	1.030606	0.00000	0.00	0.00	0.00	0.99773	0.000	1	0.00	0.00	0.00	0.00	0.00	0.00
9878	40	0.000686	0.030987	0.00000	0.00	0.00	0.00	1.00917	0.000	1	0.00	0.00	0.00	0.00	0.00	0.00
11466	40	0.027000	0.131289	0.00000	0.00	0.00	0.00	0.00000	0.000	1	0.00	0.00	0.00	0.00	0.00	0.00
11878	40	0.026260	0.155760	0.00000	0.00	0.00	0.00	0.00000	0.000	1	0.00	0.00	0.00	0.00	0.00	0.00
41	4865	0.000211	0.001659	0.00000	0.00	0.00	0.00	0.00000	0.000	1	0.00	0.00	0.00	0.00	0.00	0.00
41	9327	0.038462	1.537981	0.00000	0.00	0.00	0.00	1.00355	0.000	1	0.00	0.00	0.00	0.00	0.00	0.00
10272	41	0.000224	0.016641	0.00000	0.00	0.00	0.00	1.10508	0.000	1	0.00	0.00	0.00	0.00	0.00	0.00
10272	41	0.000219	0.017019	0.00000	0.00	0.00	0.00	0.93708	0.000	1	0.00	0.00	0.00	0.00	0.00	0.00
10441	42	0.000000	0.400000	0.00000	0.00	0.00	0.00	1.00198	0.000	1	0.00	0.00	0.00	0.00	0.00	0.00
43	929	0.060471	0.109992	0.00000	0.00	0.00	0.00	0.00000	0.000	1	0.00	0.00	0.00	0.00	0.00	0.00
1873	43	0.060331	0.128752	0.00000	0.00	0.00	0.00	0.00000	0.000	1	0.00	0.00	0.00	0.00	0.00	0.00
8263	43	0.021959	0.050058	0.00000	0.00	0.00	0.00	0.00000	0.000	1	0.00	0.00	0.00	0.00	0.00	0.00
43	10261	0.037752	0.085843	0.00000	0.00	0.00	0.00	0.00000	0.000	1	0.00	0.00	0.00	0.00	0.00	0.00
44	5108	0.018471	0.041802	0.00000	0.00	0.00	0.00	0.00000	0.000	1	0.00	0.00	0.00	0.00	0.00	0.00
44	10213	0.011331	0.023636	0.00000	0.00	0.00	0.00	0.00000	0.000	1	0.00	0.00	0.00	0.00	0.00	0.00
3958	45	0.000708	0.028320	0.00000	0.00	0.00	0.00	1.00853	0.000	1	0.00	0.00	0.00	0.00	0.00	0.00
969	46	0.005190	0.028151	0.00000	0.00	0.00	0.00	0.00000	0.000	1	0.00	0.00	0.00	0.00	0.00	0.00
2035	46	0.003180	0.021159	0.00000	0.00	0.00	0.00	0.00000	0.000	1	0.00	0.00	0.00	0.00	0.00	0.00
2035	46	0.003240	0.020760	0.00000	0.00	0.00	0.00	0.00000	0.000	1	0.00	0.00	0.00	0.00	0.00	0.00
46	2346	0.001360	0.057539	0.00000	0.00	0.00	0.00	1.00000	0.000	1	0.00	0.00	0.00	0.00	0.00	0.00
46	3390	0.008841	0.058700	0.00000	0.00	0.00	0.00	0.00000	0.000	1	0.00	0.00	0.00	0.00	0.00	0.00
3420	46	0.001260	0.007531	0.00000	0.00	0.00	0.00	0.00000	0.000	1	0.00	0.00	0.00	0.00	0.00	0.00
4107	46	0.011370	0.056789	0.00000	0.00	0.00	0.00	0.00000	0.000	1	0.00	0.00	0.00	0.00	0.00	0.00
5852	46	0.000448	0.016447	0.00000	0.00	0.00	0.00	1.00251	0.000	1	0.00	0.00	0.00	0.00	0.00	0.00
1852	47	0.017843	0.068107	0.00000	0.00	0.00	0.00	0.00000	0.000	1	0.00	0.00	0.00	0.00	0.00	0.00
7303	47	0.001640	0.079070	0.00000	0.00	0.00	0.00	1.04959	0.000	1	0.00	0.00	0.00	0.00	0.00	0.00
7424	47	0.019099	0.057876	0.00000	0.00	0.00	0.00	0.00000	0.000	1	0.00	0.00	0.00	0.00	0.00	0.00
47	7495	0.050190	0.152107	0.00000	0.00	0.00	0.00	0.00000	0.000	1	0.00	0.00	0.00	0.00	0.00	0.00
9381	47	0.020727	0.053512	0.00000	0.00	0.00	0.00	0.00000	0.000	1	0.00	0.00	0.00	0.00	0.00	0.00
9921	47	0.016893	0.050967	0.00000	0.00	0.00	0.00	0.00000	0.000	1	0.00	0.00	0.00	0.00	0.00	0.00
9921	47	0.016562	0.052033	0.00000	0.00	0.00	0.00	0.00000	0.000	1	0.00	0.00	0.00	0.00	0.00	0.00
113	48	0.000000	0.000469	0.00000	0.00	0.00	0.00	0.00000	0.000	1	0.00	0.00	0.00	0.00	0.00	0.00
5125	48	0.000940	0.012531	0.00000	0.00	0.00	0.00	0.00000	0.000	1	0.00	0.00	0.00	0.00	0.00	0.00
6237	48	0.001060	0.015950	0.00000	0.00	0.00	0.00	0.00000	0.000	1	0.00	0.00	0.00	0.00	0.00	0.00
48	8934	0.000289	0.001039	0.00000	0.00	0.00	0.00	0.00000	0.000	1	0.00	0.00	0.00	0.00	0.00	0.00
48	12513	0.000219	0.000880	0.00000	0.00	0.00	0.00	0.00000	0.000	1	0.00	0.00	0.00	0.00	0.00	0.00
49	1681	0.002009	0.014640	0.00000	0.00	0.00	0.00	0.00000	0.000	1	0.00	0.00	0.00	0.00	0.00	0.00
49	4126	0.005208	0.208268	0.00000	0.00	0.00	0.00	1.00103	0.000	1	0.00	0.00	0.00	0.00	0.00	0.00
12062	49	0.000760	0.005622	0.00000	0.00	0.00	0.00	0.00000	0.000	1	0.00	0.00	0.00	0.00	0.00	0.00
50	7481	0.015950	0.022281	0.00000	0.00	0.00	0.00	0.00000	0.000	1	0.00	0.00	0.00	0.00	0.00	0.00
8026	51	0.000000	0.064770	0.00000	0.00	0.00	0.00	0.95248	0.000	1	0.00	0.00	0.00	0.00	0.00	0.00
2096	52	0.046450	0.149160	0.00000	0.00	0.00	0.00	0.00000	0.000	1	0.00	0.00	0.00	0.00	0.00	0.00
12848	52	0.030010	0.096370	0.00000	0.00	0.00	0.00	0.00000	0.000	1	0.00	0.00	0.00	0.00	0.00	0.00
53	2965	0.001630	0.012870	0.00000	0.00	0.00	0.00	0.00000	0.000	1	0.00	0.00	0.00	0.00	0.00	0.00
53	8622	0.000550	0.006210	0.00000	0.00	0.00	0.00	0.00000	0.000	1	0.00	0.00	0.00	0.00	0.00	0.00
12322	54	0.005208	0.208268	0.00000	0.00	0.00	0.00	1.01620	0.000	1	0.00	0.00	0.00	0.00	0.00	0.00
55	301	0.002659	0.020000	0.00000	0.00	0.00	0.00	0.00000	0.000	1	0.00	0.00	0.00	0.00	0.00	0.00
1229	55	0.000323	0.028526	0.00000	0.00	0.00	0.00	0.93767	0.000	1	0.00	0.00	0.00	0.00	0.00	0.00
1294	55	0.003500	0.022211	0.00000	0.00	0.00	0.00	0.00000	0.000	1	0.00	0.00	0.00	0.00	0.00	0.00
...